version 2
run nodebug-0-20151111-15:09:54-26953
attr RB 100
attr configname nodebug
attr datetime 20151111-15:09:54
attr experiment nodebug
attr inifile omnetpp.ini
attr iterationvars "$queue=2MiB, $maxBytesPerTti=3MiB, $scheduler=\"MAXCI\", $RB=100, $numUEs=1000"
attr iterationvars2 "$queue=2MiB, $maxBytesPerTti=3MiB, $scheduler=\"MAXCI\", $RB=100, $numUEs=1000, $repetition=0"
attr maxBytesPerTti 3MiB
attr measurement "$queue=2MiB, $maxBytesPerTti=3MiB, $scheduler=\"MAXCI\", $RB=100, $numUEs=1000"
attr network scenario
attr numUEs 1000
attr processid 26953
attr queue 2MiB
attr repetition 0
attr replication #0
attr resultdir results
attr runnumber 0
attr scheduler "\"MAXCI\""
attr seedset 0

scalar . 	RB 	100
scalar . 	maxBytesPerTti 	3
attr unit  MiB
scalar . 	numUEs 	1000
scalar . 	queue 	2
attr unit  MiB
scalar scenario 	hackForCreateResultsFolder 	0
scalar scenario.node[0].mobility 	startTime 	0.1
scalar scenario.node[0].mobility 	totalTime 	44.6
scalar scenario.node[0].mobility 	stopTime 	44.7
scalar scenario.node[0].mobility 	minSpeed 	0.075609491981566
scalar scenario.node[0].mobility 	maxSpeed 	13.888699776623
scalar scenario.node[0].mobility 	totalDistance 	385.71835143199
scalar scenario.node[0].mobility 	totalCO2Emission 	97.307601017264
scalar scenario.node[0].nic80211p.phy80211p 	busyTime 	0.0001782959609417
scalar scenario.node[0].nic80211p.mac1609_4 	ReceivedUnicastPackets 	0
scalar scenario.node[0].nic80211p.mac1609_4 	ReceivedBroadcasts 	107
scalar scenario.node[0].nic80211p.mac1609_4 	SentPackets 	20
scalar scenario.node[0].nic80211p.mac1609_4 	SNIRLostPackets 	35
scalar scenario.node[0].nic80211p.mac1609_4 	RXTXLostPackets 	10
scalar scenario.node[0].nic80211p.mac1609_4 	TotalLostPackets 	45
scalar scenario.node[0].nic80211p.mac1609_4 	DroppedPacketsInMac 	0
scalar scenario.node[0].nic80211p.mac1609_4 	TooLittleTime 	0
scalar scenario.node[0].nic80211p.mac1609_4 	TimesIntoBackoff 	20
scalar scenario.node[0].nic80211p.mac1609_4 	SlotsBackoff 	23
scalar scenario.node[0].nic80211p.mac1609_4 	NumInternalContention 	0
scalar scenario.node[0].nic80211p.mac1609_4 	totalBusyTime 	0.008084087909
scalar scenario.node[0].veinsmobility 	startTime 	0.1
scalar scenario.node[0].veinsmobility 	totalTime 	44.5
scalar scenario.node[0].veinsmobility 	stopTime 	44.7
scalar scenario.node[0].veinsmobility 	minSpeed 	0.075609491981566
scalar scenario.node[0].veinsmobility 	maxSpeed 	13.888699776623
scalar scenario.node[0].veinsmobility 	totalDistance 	385.71835143199
scalar scenario.node[0].veinsmobility 	totalCO2Emission 	97.307601017264
statistic scenario.node[0].decisionMaker 	lteMessagesReceived:stats
field count 13
field mean 1
field stddev 0
field sum 13
field sqrsum 13
field min 1
field max 1
attr source  lteMessagesReceived
attr title  "lteMessagesReceived, stats"
statistic scenario.node[0].decisionMaker 	lteMessagesReceived:histogram
field count 13
field mean 1
field stddev 0
field sum 13
field sqrsum 13
field min 1
field max 1
attr source  lteMessagesReceived
attr title  "lteMessagesReceived, histogram"
bin	-INF	0
bin	0	0
bin	1	13
bin	2	0
statistic scenario.node[0].decisionMaker 	DSRCMessagesReceived:stats
field count 107
field mean 1
field stddev 0
field sum 107
field sqrsum 107
field min 1
field max 1
attr source  DSRCMessagesReceived
attr title  "DSRCMessagesReceived, stats"
statistic scenario.node[0].decisionMaker 	DSRCMessagesReceived:histogram
field count 107
field mean 1
field stddev 0
field sum 107
field sqrsum 107
field min 1
field max 1
attr source  DSRCMessagesReceived
attr title  "DSRCMessagesReceived, histogram"
bin	-INF	0
bin	0	0
bin	1	107
bin	2	0
statistic scenario.node[0].decisionMaker 	dontCareMessagesSent:stats
field count 45
field mean 1
field stddev 0
field sum 45
field sqrsum 45
field min 1
field max 1
attr source  dontCareMessagesSent
attr title  "dontCareMessagesSent, stats"
statistic scenario.node[0].decisionMaker 	dontCareMessagesSent:histogram
field count 45
field mean 1
field stddev 0
field sum 45
field sqrsum 45
field min 1
field max 1
attr source  dontCareMessagesSent
attr title  "dontCareMessagesSent, histogram"
bin	-INF	0
bin	0	0
bin	1	45
bin	2	0
statistic scenario.node[0].decisionMaker 	lteMessagesSent:stats
field count 13
field mean 1
field stddev 0
field sum 13
field sqrsum 13
field min 1
field max 1
attr source  lteMessagesSent
attr title  "lteMessagesSent, stats"
statistic scenario.node[0].decisionMaker 	lteMessagesSent:histogram
field count 13
field mean 1
field stddev 0
field sum 13
field sqrsum 13
field min 1
field max 1
attr source  lteMessagesSent
attr title  "lteMessagesSent, histogram"
bin	-INF	0
bin	0	0
bin	1	13
bin	2	0
statistic scenario.node[0].decisionMaker 	DSRCMessagesSent:stats
field count 0
field mean 0
field stddev -nan
field sum 0
field sqrsum 0
field min 0
field max 0
attr source  DSRCMessagesSent
attr title  "DSRCMessagesSent, stats"
statistic scenario.node[0].decisionMaker 	DSRCMessagesSent:histogram
field count 0
field mean 0
field stddev -nan
field sum 0
field sqrsum 0
field min 0
field max 0
attr source  DSRCMessagesSent
attr title  "DSRCMessagesSent, histogram"
bin	-INF	0
bin	-0.5	0
bin	-0.46666666666667	0
bin	-0.43333333333333	0
bin	-0.4	0
bin	-0.36666666666667	0
bin	-0.33333333333333	0
bin	-0.3	0
bin	-0.26666666666667	0
bin	-0.23333333333333	0
bin	-0.2	0
bin	-0.16666666666667	0
bin	-0.13333333333333	0
bin	-0.1	0
bin	-0.066666666666667	0
bin	-0.033333333333333	0
bin	0	0
bin	0.033333333333333	0
bin	0.066666666666667	0
bin	0.1	0
bin	0.13333333333333	0
bin	0.16666666666667	0
bin	0.2	0
bin	0.23333333333333	0
bin	0.26666666666667	0
bin	0.3	0
bin	0.33333333333333	0
bin	0.36666666666667	0
bin	0.4	0
bin	0.43333333333333	0
bin	0.46666666666667	0
bin	0.5	0
scalar scenario.node[0].networkLayer.arp 	failedARPResolution:count 	0
attr title  "ARP failed resolutions, count"
scalar scenario.node[0].networkLayer.arp 	completedARPResolution:count 	0
attr title  "ARP completed resolutions, count"
scalar scenario.node[0].networkLayer.arp 	initiatedARPResolution:count 	0
attr title  "ARP initiated resolutions, count"
scalar scenario.node[0].networkLayer.arp 	sentReply:count 	0
attr title  "ARP replies sent, count"
scalar scenario.node[0].networkLayer.arp 	sentReq:count 	0
attr title  "ARP request sent, count"
scalar scenario.node[0].nic.pdcpRrc 	sentPacketToLowerLayer:count 	33
attr interpolationmode  none
attr source  sentPacketToLowerLayer
scalar scenario.node[0].nic.pdcpRrc 	sentPacketToLowerLayer:sum(packetBytes) 	1157
attr interpolationmode  none
attr source  sentPacketToLowerLayer
scalar scenario.node[0].nic.pdcpRrc 	sentPacketToUpperLayer:count 	13
attr interpolationmode  none
attr source  sentPacketToUpperLayer
scalar scenario.node[0].nic.pdcpRrc 	sentPacketToUpperLayer:sum(packetBytes) 	364
attr interpolationmode  none
attr source  sentPacketToUpperLayer
scalar scenario.node[0].nic.pdcpRrc 	receivedPacketFromLowerLayer:count 	13
attr interpolationmode  none
attr source  receivedPacketFromLowerLayer
scalar scenario.node[0].nic.pdcpRrc 	receivedPacketFromLowerLayer:sum(packetBytes) 	377
attr interpolationmode  none
attr source  receivedPacketFromLowerLayer
scalar scenario.node[0].nic.pdcpRrc 	receivedPacketFromUpperLayer:count 	33
attr interpolationmode  none
attr source  receivedPacketFromUpperLayer
scalar scenario.node[0].nic.pdcpRrc 	receivedPacketFromUpperLayer:sum(packetBytes) 	1124
attr interpolationmode  none
attr source  receivedPacketFromUpperLayer
scalar scenario.node[0].nic.mac 	measuredItbs:mean 	-nan
attr source  measuredItbs
attr title  "TBS index, mean"
attr unit  ""
scalar scenario.node[0].nic.mac 	harqErrorRate_4th_Dl:mean 	-nan
attr source  harqErrorRate_4th_Dl
attr title  "Harq Error Rate Dl, mean"
attr unit  ""
scalar scenario.node[0].nic.mac 	harqErrorRate_4th_Ul:mean 	-nan
attr source  harqErrorRate_4th_Ul
attr title  "Harq Error Rate Dl, mean"
attr unit  ""
scalar scenario.node[0].nic.mac 	harqErrorRate_3rd_Dl:mean 	-nan
attr source  harqErrorRate_3rd_Dl
attr title  "Harq Error Rate Dl, mean"
attr unit  ""
scalar scenario.node[0].nic.mac 	harqErrorRate_3rd_Ul:mean 	-nan
attr source  harqErrorRate_3rd_Ul
attr title  "Harq Error Rate Dl, mean"
attr unit  ""
scalar scenario.node[0].nic.mac 	harqErrorRate_2nd_Dl:mean 	-nan
attr source  harqErrorRate_2nd_Dl
attr title  "Harq Error Rate Dl, mean"
attr unit  ""
scalar scenario.node[0].nic.mac 	harqErrorRate_2nd_Ul:mean 	0
attr source  harqErrorRate_2nd_Ul
attr title  "Harq Error Rate Dl, mean"
attr unit  ""
scalar scenario.node[0].nic.mac 	harqErrorRate_1st_Dl:mean 	0
attr source  harqErrorRate_1st_Dl
attr title  "Harq Error Rate Dl, mean"
attr unit  ""
scalar scenario.node[0].nic.mac 	harqErrorRate_1st_Ul:mean 	0.12307692307692
attr source  harqErrorRate_1st_Ul
attr title  "Harq Error Rate Dl, mean"
attr unit  ""
scalar scenario.node[0].nic.mac 	harqErrorRateDl:mean 	0
attr source  harqErrorRateDl
attr title  "Harq Error Rate Dl, mean"
attr unit  ""
scalar scenario.node[0].nic.mac 	harqErrorRateUl:mean 	0.10958904109589
attr source  harqErrorRateUl
attr title  "Harq Error Rate Dl, mean"
attr unit  ""
scalar scenario.node[0].nic.mac 	macPacketLossDl:mean 	0
attr source  macPacketLossDl
attr title  "Mac Packet Loss, mean"
attr unit  ""
scalar scenario.node[0].nic.mac 	macPacketLossUl:mean 	0
attr source  macPacketLossUl
attr title  "Mac Packet Loss, mean"
attr unit  ""
scalar scenario.node[0].nic.mac 	macCellPacketLossUl:mean 	-nan
attr source  macCellPacketLossUl
attr title  "Mac Cell Packet Loss, mean"
attr unit  ""
scalar scenario.node[0].nic.mac 	macCellPacketLossDl:mean 	-nan
attr source  macCellPacketLossDl
attr title  "Mac Cell Packet Loss, mean"
attr unit  ""
scalar scenario.node[0].nic.mac 	sentPacketToLowerLayer:count 	135
attr interpolationmode  none
attr source  sentPacketToLowerLayer
scalar scenario.node[0].nic.mac 	sentPacketToLowerLayer:sum(packetBytes) 	0
attr interpolationmode  none
attr source  sentPacketToLowerLayer
scalar scenario.node[0].nic.mac 	sentPacketToUpperLayer:count 	26
attr interpolationmode  none
attr source  sentPacketToUpperLayer
scalar scenario.node[0].nic.mac 	sentPacketToUpperLayer:sum(packetBytes) 	403
attr interpolationmode  none
attr source  sentPacketToUpperLayer
scalar scenario.node[0].nic.mac 	receivedPacketFromLowerLayer:count 	241
attr interpolationmode  none
attr source  receivedPacketFromLowerLayer
scalar scenario.node[0].nic.mac 	receivedPacketFromLowerLayer:sum(packetBytes) 	0
attr interpolationmode  none
attr source  receivedPacketFromLowerLayer
scalar scenario.node[0].nic.mac 	receivedPacketFromUpperLayer:count 	66
attr interpolationmode  none
attr source  receivedPacketFromUpperLayer
scalar scenario.node[0].nic.mac 	receivedPacketFromUpperLayer:sum(packetBytes) 	1223
attr interpolationmode  none
attr source  receivedPacketFromUpperLayer
scalar scenario.node[0].UDP 	droppedPkBadChecksum:count 	0
attr interpolationmode  none
attr title  "packets dropped (checksum error), count"
scalar scenario.node[0].UDP 	droppedPkWrongPort:count 	0
attr interpolationmode  none
attr title  "packets dropped (wrong port), count"
scalar scenario.node[0].UDP 	passedUpPk:count 	13
attr interpolationmode  none
attr title  "packets passed up, count"
scalar scenario.node[0].UDP 	rcvdPk:count 	13
attr interpolationmode  none
attr source  rcvdPk
attr title  "packets received, count"
scalar scenario.node[0].UDP 	rcvdPk:sum(packetBytes) 	104
attr interpolationmode  none
attr source  rcvdPk
attr title  "packets received, sum(packetBytes)"
scalar scenario.node[0].UDP 	sentPk:count 	38
attr interpolationmode  none
attr source  sentPk
attr title  "packets sent, count"
scalar scenario.node[0].UDP 	sentPk:sum(packetBytes) 	554
attr interpolationmode  none
attr source  sentPk
attr title  "packets sent, sum(packetBytes)"
scalar scenario.node[1].mobility 	startTime 	0.1
scalar scenario.node[1].mobility 	totalTime 	45.3
scalar scenario.node[1].mobility 	stopTime 	45.4
scalar scenario.node[1].mobility 	minSpeed 	0.075257243068889
scalar scenario.node[1].mobility 	maxSpeed 	13.889251314048
scalar scenario.node[1].mobility 	totalDistance 	385.89188896646
scalar scenario.node[1].mobility 	totalCO2Emission 	97.723760602977
scalar scenario.node[1].nic80211p.phy80211p 	busyTime 	0.00017306842958057
scalar scenario.node[1].nic80211p.mac1609_4 	ReceivedUnicastPackets 	0
scalar scenario.node[1].nic80211p.mac1609_4 	ReceivedBroadcasts 	105
scalar scenario.node[1].nic80211p.mac1609_4 	SentPackets 	26
scalar scenario.node[1].nic80211p.mac1609_4 	SNIRLostPackets 	35
scalar scenario.node[1].nic80211p.mac1609_4 	RXTXLostPackets 	10
scalar scenario.node[1].nic80211p.mac1609_4 	TotalLostPackets 	45
scalar scenario.node[1].nic80211p.mac1609_4 	DroppedPacketsInMac 	0
scalar scenario.node[1].nic80211p.mac1609_4 	TooLittleTime 	0
scalar scenario.node[1].nic80211p.mac1609_4 	TimesIntoBackoff 	26
scalar scenario.node[1].nic80211p.mac1609_4 	SlotsBackoff 	41
scalar scenario.node[1].nic80211p.mac1609_4 	NumInternalContention 	0
scalar scenario.node[1].nic80211p.mac1609_4 	totalBusyTime 	0.00825800437
scalar scenario.node[1].veinsmobility 	startTime 	0.1
scalar scenario.node[1].veinsmobility 	totalTime 	45.2
scalar scenario.node[1].veinsmobility 	stopTime 	45.4
scalar scenario.node[1].veinsmobility 	minSpeed 	0.075257243068889
scalar scenario.node[1].veinsmobility 	maxSpeed 	13.889251314048
scalar scenario.node[1].veinsmobility 	totalDistance 	385.89188896646
scalar scenario.node[1].veinsmobility 	totalCO2Emission 	97.723760602977
statistic scenario.node[1].decisionMaker 	lteMessagesReceived:stats
field count 13
field mean 1
field stddev 0
field sum 13
field sqrsum 13
field min 1
field max 1
attr source  lteMessagesReceived
attr title  "lteMessagesReceived, stats"
statistic scenario.node[1].decisionMaker 	lteMessagesReceived:histogram
field count 13
field mean 1
field stddev 0
field sum 13
field sqrsum 13
field min 1
field max 1
attr source  lteMessagesReceived
attr title  "lteMessagesReceived, histogram"
bin	-INF	0
bin	0	0
bin	1	13
bin	2	0
statistic scenario.node[1].decisionMaker 	DSRCMessagesReceived:stats
field count 105
field mean 1
field stddev 0
field sum 105
field sqrsum 105
field min 1
field max 1
attr source  DSRCMessagesReceived
attr title  "DSRCMessagesReceived, stats"
statistic scenario.node[1].decisionMaker 	DSRCMessagesReceived:histogram
field count 105
field mean 1
field stddev 0
field sum 105
field sqrsum 105
field min 1
field max 1
attr source  DSRCMessagesReceived
attr title  "DSRCMessagesReceived, histogram"
bin	-INF	0
bin	0	0
bin	1	105
bin	2	0
statistic scenario.node[1].decisionMaker 	dontCareMessagesSent:stats
field count 45
field mean 1
field stddev 0
field sum 45
field sqrsum 45
field min 1
field max 1
attr source  dontCareMessagesSent
attr title  "dontCareMessagesSent, stats"
statistic scenario.node[1].decisionMaker 	dontCareMessagesSent:histogram
field count 45
field mean 1
field stddev 0
field sum 45
field sqrsum 45
field min 1
field max 1
attr source  dontCareMessagesSent
attr title  "dontCareMessagesSent, histogram"
bin	-INF	0
bin	0	0
bin	1	45
bin	2	0
statistic scenario.node[1].decisionMaker 	lteMessagesSent:stats
field count 13
field mean 1
field stddev 0
field sum 13
field sqrsum 13
field min 1
field max 1
attr source  lteMessagesSent
attr title  "lteMessagesSent, stats"
statistic scenario.node[1].decisionMaker 	lteMessagesSent:histogram
field count 13
field mean 1
field stddev 0
field sum 13
field sqrsum 13
field min 1
field max 1
attr source  lteMessagesSent
attr title  "lteMessagesSent, histogram"
bin	-INF	0
bin	0	0
bin	1	13
bin	2	0
statistic scenario.node[1].decisionMaker 	DSRCMessagesSent:stats
field count 0
field mean 0
field stddev -nan
field sum 0
field sqrsum 0
field min 0
field max 0
attr source  DSRCMessagesSent
attr title  "DSRCMessagesSent, stats"
statistic scenario.node[1].decisionMaker 	DSRCMessagesSent:histogram
field count 0
field mean 0
field stddev -nan
field sum 0
field sqrsum 0
field min 0
field max 0
attr source  DSRCMessagesSent
attr title  "DSRCMessagesSent, histogram"
bin	-INF	0
bin	-0.5	0
bin	-0.46666666666667	0
bin	-0.43333333333333	0
bin	-0.4	0
bin	-0.36666666666667	0
bin	-0.33333333333333	0
bin	-0.3	0
bin	-0.26666666666667	0
bin	-0.23333333333333	0
bin	-0.2	0
bin	-0.16666666666667	0
bin	-0.13333333333333	0
bin	-0.1	0
bin	-0.066666666666667	0
bin	-0.033333333333333	0
bin	0	0
bin	0.033333333333333	0
bin	0.066666666666667	0
bin	0.1	0
bin	0.13333333333333	0
bin	0.16666666666667	0
bin	0.2	0
bin	0.23333333333333	0
bin	0.26666666666667	0
bin	0.3	0
bin	0.33333333333333	0
bin	0.36666666666667	0
bin	0.4	0
bin	0.43333333333333	0
bin	0.46666666666667	0
bin	0.5	0
scalar scenario.node[1].networkLayer.arp 	failedARPResolution:count 	0
attr title  "ARP failed resolutions, count"
scalar scenario.node[1].networkLayer.arp 	completedARPResolution:count 	0
attr title  "ARP completed resolutions, count"
scalar scenario.node[1].networkLayer.arp 	initiatedARPResolution:count 	0
attr title  "ARP initiated resolutions, count"
scalar scenario.node[1].networkLayer.arp 	sentReply:count 	0
attr title  "ARP replies sent, count"
scalar scenario.node[1].networkLayer.arp 	sentReq:count 	0
attr title  "ARP request sent, count"
scalar scenario.node[1].nic.pdcpRrc 	sentPacketToLowerLayer:count 	30
attr interpolationmode  none
attr source  sentPacketToLowerLayer
scalar scenario.node[1].nic.pdcpRrc 	sentPacketToLowerLayer:sum(packetBytes) 	1040
attr interpolationmode  none
attr source  sentPacketToLowerLayer
scalar scenario.node[1].nic.pdcpRrc 	sentPacketToUpperLayer:count 	13
attr interpolationmode  none
attr source  sentPacketToUpperLayer
scalar scenario.node[1].nic.pdcpRrc 	sentPacketToUpperLayer:sum(packetBytes) 	364
attr interpolationmode  none
attr source  sentPacketToUpperLayer
scalar scenario.node[1].nic.pdcpRrc 	receivedPacketFromLowerLayer:count 	13
attr interpolationmode  none
attr source  receivedPacketFromLowerLayer
scalar scenario.node[1].nic.pdcpRrc 	receivedPacketFromLowerLayer:sum(packetBytes) 	377
attr interpolationmode  none
attr source  receivedPacketFromLowerLayer
scalar scenario.node[1].nic.pdcpRrc 	receivedPacketFromUpperLayer:count 	30
attr interpolationmode  none
attr source  receivedPacketFromUpperLayer
scalar scenario.node[1].nic.pdcpRrc 	receivedPacketFromUpperLayer:sum(packetBytes) 	1010
attr interpolationmode  none
attr source  receivedPacketFromUpperLayer
scalar scenario.node[1].nic.mac 	measuredItbs:mean 	-nan
attr source  measuredItbs
attr title  "TBS index, mean"
attr unit  ""
scalar scenario.node[1].nic.mac 	harqErrorRate_4th_Dl:mean 	-nan
attr source  harqErrorRate_4th_Dl
attr title  "Harq Error Rate Dl, mean"
attr unit  ""
scalar scenario.node[1].nic.mac 	harqErrorRate_4th_Ul:mean 	-nan
attr source  harqErrorRate_4th_Ul
attr title  "Harq Error Rate Dl, mean"
attr unit  ""
scalar scenario.node[1].nic.mac 	harqErrorRate_3rd_Dl:mean 	-nan
attr source  harqErrorRate_3rd_Dl
attr title  "Harq Error Rate Dl, mean"
attr unit  ""
scalar scenario.node[1].nic.mac 	harqErrorRate_3rd_Ul:mean 	-nan
attr source  harqErrorRate_3rd_Ul
attr title  "Harq Error Rate Dl, mean"
attr unit  ""
scalar scenario.node[1].nic.mac 	harqErrorRate_2nd_Dl:mean 	-nan
attr source  harqErrorRate_2nd_Dl
attr title  "Harq Error Rate Dl, mean"
attr unit  ""
scalar scenario.node[1].nic.mac 	harqErrorRate_2nd_Ul:mean 	0
attr source  harqErrorRate_2nd_Ul
attr title  "Harq Error Rate Dl, mean"
attr unit  ""
scalar scenario.node[1].nic.mac 	harqErrorRate_1st_Dl:mean 	0
attr source  harqErrorRate_1st_Dl
attr title  "Harq Error Rate Dl, mean"
attr unit  ""
scalar scenario.node[1].nic.mac 	harqErrorRate_1st_Ul:mean 	0.083333333333333
attr source  harqErrorRate_1st_Ul
attr title  "Harq Error Rate Dl, mean"
attr unit  ""
scalar scenario.node[1].nic.mac 	harqErrorRateDl:mean 	0
attr source  harqErrorRateDl
attr title  "Harq Error Rate Dl, mean"
attr unit  ""
scalar scenario.node[1].nic.mac 	harqErrorRateUl:mean 	0.076923076923077
attr source  harqErrorRateUl
attr title  "Harq Error Rate Dl, mean"
attr unit  ""
scalar scenario.node[1].nic.mac 	macPacketLossDl:mean 	0
attr source  macPacketLossDl
attr title  "Mac Packet Loss, mean"
attr unit  ""
scalar scenario.node[1].nic.mac 	macPacketLossUl:mean 	0
attr source  macPacketLossUl
attr title  "Mac Packet Loss, mean"
attr unit  ""
scalar scenario.node[1].nic.mac 	macCellPacketLossUl:mean 	-nan
attr source  macCellPacketLossUl
attr title  "Mac Cell Packet Loss, mean"
attr unit  ""
scalar scenario.node[1].nic.mac 	macCellPacketLossDl:mean 	-nan
attr source  macCellPacketLossDl
attr title  "Mac Cell Packet Loss, mean"
attr unit  ""
scalar scenario.node[1].nic.mac 	sentPacketToLowerLayer:count 	104
attr interpolationmode  none
attr source  sentPacketToLowerLayer
scalar scenario.node[1].nic.mac 	sentPacketToLowerLayer:sum(packetBytes) 	0
attr interpolationmode  none
attr source  sentPacketToLowerLayer
scalar scenario.node[1].nic.mac 	sentPacketToUpperLayer:count 	26
attr interpolationmode  none
attr source  sentPacketToUpperLayer
scalar scenario.node[1].nic.mac 	sentPacketToUpperLayer:sum(packetBytes) 	403
attr interpolationmode  none
attr source  sentPacketToUpperLayer
scalar scenario.node[1].nic.mac 	receivedPacketFromLowerLayer:count 	186
attr interpolationmode  none
attr source  receivedPacketFromLowerLayer
scalar scenario.node[1].nic.mac 	receivedPacketFromLowerLayer:sum(packetBytes) 	0
attr interpolationmode  none
attr source  receivedPacketFromLowerLayer
scalar scenario.node[1].nic.mac 	receivedPacketFromUpperLayer:count 	60
attr interpolationmode  none
attr source  receivedPacketFromUpperLayer
scalar scenario.node[1].nic.mac 	receivedPacketFromUpperLayer:sum(packetBytes) 	1100
attr interpolationmode  none
attr source  receivedPacketFromUpperLayer
scalar scenario.node[1].UDP 	droppedPkBadChecksum:count 	0
attr interpolationmode  none
attr title  "packets dropped (checksum error), count"
scalar scenario.node[1].UDP 	droppedPkWrongPort:count 	0
attr interpolationmode  none
attr title  "packets dropped (wrong port), count"
scalar scenario.node[1].UDP 	passedUpPk:count 	13
attr interpolationmode  none
attr title  "packets passed up, count"
scalar scenario.node[1].UDP 	rcvdPk:count 	13
attr interpolationmode  none
attr source  rcvdPk
attr title  "packets received, count"
scalar scenario.node[1].UDP 	rcvdPk:sum(packetBytes) 	104
attr interpolationmode  none
attr source  rcvdPk
attr title  "packets received, sum(packetBytes)"
scalar scenario.node[1].UDP 	sentPk:count 	32
attr interpolationmode  none
attr source  sentPk
attr title  "packets sent, count"
scalar scenario.node[1].UDP 	sentPk:sum(packetBytes) 	446
attr interpolationmode  none
attr source  sentPk
attr title  "packets sent, sum(packetBytes)"
scalar scenario.node[3].mobility 	startTime 	5.5
scalar scenario.node[3].mobility 	totalTime 	50.7
scalar scenario.node[3].mobility 	stopTime 	50.8
scalar scenario.node[3].mobility 	minSpeed 	0.078709523910657
scalar scenario.node[3].mobility 	maxSpeed 	13.889691197984
scalar scenario.node[3].mobility 	totalDistance 	385.68021716037
scalar scenario.node[3].mobility 	totalCO2Emission 	97.275248048957
scalar scenario.node[3].nic80211p.phy80211p 	busyTime 	0.0001928476786755
scalar scenario.node[3].nic80211p.mac1609_4 	ReceivedUnicastPackets 	0
scalar scenario.node[3].nic80211p.mac1609_4 	ReceivedBroadcasts 	125
scalar scenario.node[3].nic80211p.mac1609_4 	SentPackets 	22
scalar scenario.node[3].nic80211p.mac1609_4 	SNIRLostPackets 	31
scalar scenario.node[3].nic80211p.mac1609_4 	RXTXLostPackets 	11
scalar scenario.node[3].nic80211p.mac1609_4 	TotalLostPackets 	42
scalar scenario.node[3].nic80211p.mac1609_4 	DroppedPacketsInMac 	0
scalar scenario.node[3].nic80211p.mac1609_4 	TooLittleTime 	0
scalar scenario.node[3].nic80211p.mac1609_4 	TimesIntoBackoff 	22
scalar scenario.node[3].nic80211p.mac1609_4 	SlotsBackoff 	38
scalar scenario.node[3].nic80211p.mac1609_4 	NumInternalContention 	0
scalar scenario.node[3].nic80211p.mac1609_4 	totalBusyTime 	0.008982265946
scalar scenario.node[3].veinsmobility 	startTime 	5.5
scalar scenario.node[3].veinsmobility 	totalTime 	45.2
scalar scenario.node[3].veinsmobility 	stopTime 	50.8
scalar scenario.node[3].veinsmobility 	minSpeed 	0.078709523910657
scalar scenario.node[3].veinsmobility 	maxSpeed 	13.889691197984
scalar scenario.node[3].veinsmobility 	totalDistance 	385.68021716037
scalar scenario.node[3].veinsmobility 	totalCO2Emission 	97.275248048957
statistic scenario.node[3].decisionMaker 	lteMessagesReceived:stats
field count 9
field mean 1
field stddev 0
field sum 9
field sqrsum 9
field min 1
field max 1
attr source  lteMessagesReceived
attr title  "lteMessagesReceived, stats"
statistic scenario.node[3].decisionMaker 	lteMessagesReceived:histogram
field count 9
field mean 1
field stddev 0
field sum 9
field sqrsum 9
field min 1
field max 1
attr source  lteMessagesReceived
attr title  "lteMessagesReceived, histogram"
bin	-INF	0
bin	0	0
bin	1	9
bin	2	0
statistic scenario.node[3].decisionMaker 	DSRCMessagesReceived:stats
field count 125
field mean 1
field stddev 0
field sum 125
field sqrsum 125
field min 1
field max 1
attr source  DSRCMessagesReceived
attr title  "DSRCMessagesReceived, stats"
statistic scenario.node[3].decisionMaker 	DSRCMessagesReceived:histogram
field count 125
field mean 1
field stddev 0
field sum 125
field sqrsum 125
field min 1
field max 1
attr source  DSRCMessagesReceived
attr title  "DSRCMessagesReceived, histogram"
bin	-INF	0
bin	0	0
bin	1	125
bin	2	0
statistic scenario.node[3].decisionMaker 	dontCareMessagesSent:stats
field count 45
field mean 1
field stddev 0
field sum 45
field sqrsum 45
field min 1
field max 1
attr source  dontCareMessagesSent
attr title  "dontCareMessagesSent, stats"
statistic scenario.node[3].decisionMaker 	dontCareMessagesSent:histogram
field count 45
field mean 1
field stddev 0
field sum 45
field sqrsum 45
field min 1
field max 1
attr source  dontCareMessagesSent
attr title  "dontCareMessagesSent, histogram"
bin	-INF	0
bin	0	0
bin	1	45
bin	2	0
statistic scenario.node[3].decisionMaker 	lteMessagesSent:stats
field count 9
field mean 1
field stddev 0
field sum 9
field sqrsum 9
field min 1
field max 1
attr source  lteMessagesSent
attr title  "lteMessagesSent, stats"
statistic scenario.node[3].decisionMaker 	lteMessagesSent:histogram
field count 9
field mean 1
field stddev 0
field sum 9
field sqrsum 9
field min 1
field max 1
attr source  lteMessagesSent
attr title  "lteMessagesSent, histogram"
bin	-INF	0
bin	0	0
bin	1	9
bin	2	0
statistic scenario.node[3].decisionMaker 	DSRCMessagesSent:stats
field count 0
field mean 0
field stddev -nan
field sum 0
field sqrsum 0
field min 0
field max 0
attr source  DSRCMessagesSent
attr title  "DSRCMessagesSent, stats"
statistic scenario.node[3].decisionMaker 	DSRCMessagesSent:histogram
field count 0
field mean 0
field stddev -nan
field sum 0
field sqrsum 0
field min 0
field max 0
attr source  DSRCMessagesSent
attr title  "DSRCMessagesSent, histogram"
bin	-INF	0
bin	-0.5	0
bin	-0.46666666666667	0
bin	-0.43333333333333	0
bin	-0.4	0
bin	-0.36666666666667	0
bin	-0.33333333333333	0
bin	-0.3	0
bin	-0.26666666666667	0
bin	-0.23333333333333	0
bin	-0.2	0
bin	-0.16666666666667	0
bin	-0.13333333333333	0
bin	-0.1	0
bin	-0.066666666666667	0
bin	-0.033333333333333	0
bin	0	0
bin	0.033333333333333	0
bin	0.066666666666667	0
bin	0.1	0
bin	0.13333333333333	0
bin	0.16666666666667	0
bin	0.2	0
bin	0.23333333333333	0
bin	0.26666666666667	0
bin	0.3	0
bin	0.33333333333333	0
bin	0.36666666666667	0
bin	0.4	0
bin	0.43333333333333	0
bin	0.46666666666667	0
bin	0.5	0
scalar scenario.node[3].networkLayer.arp 	failedARPResolution:count 	0
attr title  "ARP failed resolutions, count"
scalar scenario.node[3].networkLayer.arp 	completedARPResolution:count 	0
attr title  "ARP completed resolutions, count"
scalar scenario.node[3].networkLayer.arp 	initiatedARPResolution:count 	0
attr title  "ARP initiated resolutions, count"
scalar scenario.node[3].networkLayer.arp 	sentReply:count 	0
attr title  "ARP replies sent, count"
scalar scenario.node[3].networkLayer.arp 	sentReq:count 	0
attr title  "ARP request sent, count"
scalar scenario.node[3].nic.pdcpRrc 	sentPacketToLowerLayer:count 	27
attr interpolationmode  none
attr source  sentPacketToLowerLayer
scalar scenario.node[3].nic.pdcpRrc 	sentPacketToLowerLayer:sum(packetBytes) 	963
attr interpolationmode  none
attr source  sentPacketToLowerLayer
scalar scenario.node[3].nic.pdcpRrc 	sentPacketToUpperLayer:count 	9
attr interpolationmode  none
attr source  sentPacketToUpperLayer
scalar scenario.node[3].nic.pdcpRrc 	sentPacketToUpperLayer:sum(packetBytes) 	252
attr interpolationmode  none
attr source  sentPacketToUpperLayer
scalar scenario.node[3].nic.pdcpRrc 	receivedPacketFromLowerLayer:count 	9
attr interpolationmode  none
attr source  receivedPacketFromLowerLayer
scalar scenario.node[3].nic.pdcpRrc 	receivedPacketFromLowerLayer:sum(packetBytes) 	261
attr interpolationmode  none
attr source  receivedPacketFromLowerLayer
scalar scenario.node[3].nic.pdcpRrc 	receivedPacketFromUpperLayer:count 	27
attr interpolationmode  none
attr source  receivedPacketFromUpperLayer
scalar scenario.node[3].nic.pdcpRrc 	receivedPacketFromUpperLayer:sum(packetBytes) 	936
attr interpolationmode  none
attr source  receivedPacketFromUpperLayer
scalar scenario.node[3].nic.mac 	measuredItbs:mean 	-nan
attr source  measuredItbs
attr title  "TBS index, mean"
attr unit  ""
scalar scenario.node[3].nic.mac 	harqErrorRate_4th_Dl:mean 	-nan
attr source  harqErrorRate_4th_Dl
attr title  "Harq Error Rate Dl, mean"
attr unit  ""
scalar scenario.node[3].nic.mac 	harqErrorRate_4th_Ul:mean 	-nan
attr source  harqErrorRate_4th_Ul
attr title  "Harq Error Rate Dl, mean"
attr unit  ""
scalar scenario.node[3].nic.mac 	harqErrorRate_3rd_Dl:mean 	-nan
attr source  harqErrorRate_3rd_Dl
attr title  "Harq Error Rate Dl, mean"
attr unit  ""
scalar scenario.node[3].nic.mac 	harqErrorRate_3rd_Ul:mean 	-nan
attr source  harqErrorRate_3rd_Ul
attr title  "Harq Error Rate Dl, mean"
attr unit  ""
scalar scenario.node[3].nic.mac 	harqErrorRate_2nd_Dl:mean 	-nan
attr source  harqErrorRate_2nd_Dl
attr title  "Harq Error Rate Dl, mean"
attr unit  ""
scalar scenario.node[3].nic.mac 	harqErrorRate_2nd_Ul:mean 	0
attr source  harqErrorRate_2nd_Ul
attr title  "Harq Error Rate Dl, mean"
attr unit  ""
scalar scenario.node[3].nic.mac 	harqErrorRate_1st_Dl:mean 	0
attr source  harqErrorRate_1st_Dl
attr title  "Harq Error Rate Dl, mean"
attr unit  ""
scalar scenario.node[3].nic.mac 	harqErrorRate_1st_Ul:mean 	0.061224489795918
attr source  harqErrorRate_1st_Ul
attr title  "Harq Error Rate Dl, mean"
attr unit  ""
scalar scenario.node[3].nic.mac 	harqErrorRateDl:mean 	0
attr source  harqErrorRateDl
attr title  "Harq Error Rate Dl, mean"
attr unit  ""
scalar scenario.node[3].nic.mac 	harqErrorRateUl:mean 	0.057692307692308
attr source  harqErrorRateUl
attr title  "Harq Error Rate Dl, mean"
attr unit  ""
scalar scenario.node[3].nic.mac 	macPacketLossDl:mean 	0
attr source  macPacketLossDl
attr title  "Mac Packet Loss, mean"
attr unit  ""
scalar scenario.node[3].nic.mac 	macPacketLossUl:mean 	0
attr source  macPacketLossUl
attr title  "Mac Packet Loss, mean"
attr unit  ""
scalar scenario.node[3].nic.mac 	macCellPacketLossUl:mean 	-nan
attr source  macCellPacketLossUl
attr title  "Mac Cell Packet Loss, mean"
attr unit  ""
scalar scenario.node[3].nic.mac 	macCellPacketLossDl:mean 	-nan
attr source  macCellPacketLossDl
attr title  "Mac Cell Packet Loss, mean"
attr unit  ""
scalar scenario.node[3].nic.mac 	sentPacketToLowerLayer:count 	99
attr interpolationmode  none
attr source  sentPacketToLowerLayer
scalar scenario.node[3].nic.mac 	sentPacketToLowerLayer:sum(packetBytes) 	0
attr interpolationmode  none
attr source  sentPacketToLowerLayer
scalar scenario.node[3].nic.mac 	sentPacketToUpperLayer:count 	18
attr interpolationmode  none
attr source  sentPacketToUpperLayer
scalar scenario.node[3].nic.mac 	sentPacketToUpperLayer:sum(packetBytes) 	279
attr interpolationmode  none
attr source  sentPacketToUpperLayer
scalar scenario.node[3].nic.mac 	receivedPacketFromLowerLayer:count 	178
attr interpolationmode  none
attr source  receivedPacketFromLowerLayer
scalar scenario.node[3].nic.mac 	receivedPacketFromLowerLayer:sum(packetBytes) 	0
attr interpolationmode  none
attr source  receivedPacketFromLowerLayer
scalar scenario.node[3].nic.mac 	receivedPacketFromUpperLayer:count 	54
attr interpolationmode  none
attr source  receivedPacketFromUpperLayer
scalar scenario.node[3].nic.mac 	receivedPacketFromUpperLayer:sum(packetBytes) 	1017
attr interpolationmode  none
attr source  receivedPacketFromUpperLayer
scalar scenario.node[3].UDP 	droppedPkBadChecksum:count 	0
attr interpolationmode  none
attr title  "packets dropped (checksum error), count"
scalar scenario.node[3].UDP 	droppedPkWrongPort:count 	0
attr interpolationmode  none
attr title  "packets dropped (wrong port), count"
scalar scenario.node[3].UDP 	passedUpPk:count 	9
attr interpolationmode  none
attr title  "packets passed up, count"
scalar scenario.node[3].UDP 	rcvdPk:count 	9
attr interpolationmode  none
attr source  rcvdPk
attr title  "packets received, count"
scalar scenario.node[3].UDP 	rcvdPk:sum(packetBytes) 	72
attr interpolationmode  none
attr source  rcvdPk
attr title  "packets received, sum(packetBytes)"
scalar scenario.node[3].UDP 	sentPk:count 	32
attr interpolationmode  none
attr source  sentPk
attr title  "packets sent, count"
scalar scenario.node[3].UDP 	sentPk:sum(packetBytes) 	486
attr interpolationmode  none
attr source  sentPk
attr title  "packets sent, sum(packetBytes)"
scalar scenario.node[2].mobility 	startTime 	5.4
scalar scenario.node[2].mobility 	totalTime 	50.7
scalar scenario.node[2].mobility 	stopTime 	50.8
scalar scenario.node[2].mobility 	minSpeed 	0.078328985931352
scalar scenario.node[2].mobility 	maxSpeed 	13.888934710678
scalar scenario.node[2].mobility 	totalDistance 	385.40721089231
scalar scenario.node[2].mobility 	totalCO2Emission 	97.523639740817
scalar scenario.node[2].nic80211p.phy80211p 	busyTime 	0.00019118942389867
scalar scenario.node[2].nic80211p.mac1609_4 	ReceivedUnicastPackets 	0
scalar scenario.node[2].nic80211p.mac1609_4 	ReceivedBroadcasts 	120
scalar scenario.node[2].nic80211p.mac1609_4 	SentPackets 	24
scalar scenario.node[2].nic80211p.mac1609_4 	SNIRLostPackets 	35
scalar scenario.node[2].nic80211p.mac1609_4 	RXTXLostPackets 	10
scalar scenario.node[2].nic80211p.mac1609_4 	TotalLostPackets 	45
scalar scenario.node[2].nic80211p.mac1609_4 	DroppedPacketsInMac 	0
scalar scenario.node[2].nic80211p.mac1609_4 	TooLittleTime 	0
scalar scenario.node[2].nic80211p.mac1609_4 	TimesIntoBackoff 	24
scalar scenario.node[2].nic80211p.mac1609_4 	SlotsBackoff 	41
scalar scenario.node[2].nic80211p.mac1609_4 	NumInternalContention 	0
scalar scenario.node[2].nic80211p.mac1609_4 	totalBusyTime 	0.008984013169
scalar scenario.node[2].veinsmobility 	startTime 	5.4
scalar scenario.node[2].veinsmobility 	totalTime 	45.3
scalar scenario.node[2].veinsmobility 	stopTime 	50.8
scalar scenario.node[2].veinsmobility 	minSpeed 	0.078328985931352
scalar scenario.node[2].veinsmobility 	maxSpeed 	13.888934710678
scalar scenario.node[2].veinsmobility 	totalDistance 	385.40721089231
scalar scenario.node[2].veinsmobility 	totalCO2Emission 	97.523639740817
statistic scenario.node[2].decisionMaker 	lteMessagesReceived:stats
field count 10
field mean 1
field stddev 0
field sum 10
field sqrsum 10
field min 1
field max 1
attr source  lteMessagesReceived
attr title  "lteMessagesReceived, stats"
statistic scenario.node[2].decisionMaker 	lteMessagesReceived:histogram
field count 10
field mean 1
field stddev 0
field sum 10
field sqrsum 10
field min 1
field max 1
attr source  lteMessagesReceived
attr title  "lteMessagesReceived, histogram"
bin	-INF	0
bin	0	0
bin	1	10
bin	2	0
statistic scenario.node[2].decisionMaker 	DSRCMessagesReceived:stats
field count 120
field mean 1
field stddev 0
field sum 120
field sqrsum 120
field min 1
field max 1
attr source  DSRCMessagesReceived
attr title  "DSRCMessagesReceived, stats"
statistic scenario.node[2].decisionMaker 	DSRCMessagesReceived:histogram
field count 120
field mean 1
field stddev 0
field sum 120
field sqrsum 120
field min 1
field max 1
attr source  DSRCMessagesReceived
attr title  "DSRCMessagesReceived, histogram"
bin	-INF	0
bin	0	0
bin	1	120
bin	2	0
statistic scenario.node[2].decisionMaker 	dontCareMessagesSent:stats
field count 45
field mean 1
field stddev 0
field sum 45
field sqrsum 45
field min 1
field max 1
attr source  dontCareMessagesSent
attr title  "dontCareMessagesSent, stats"
statistic scenario.node[2].decisionMaker 	dontCareMessagesSent:histogram
field count 45
field mean 1
field stddev 0
field sum 45
field sqrsum 45
field min 1
field max 1
attr source  dontCareMessagesSent
attr title  "dontCareMessagesSent, histogram"
bin	-INF	0
bin	0	0
bin	1	45
bin	2	0
statistic scenario.node[2].decisionMaker 	lteMessagesSent:stats
field count 10
field mean 1
field stddev 0
field sum 10
field sqrsum 10
field min 1
field max 1
attr source  lteMessagesSent
attr title  "lteMessagesSent, stats"
statistic scenario.node[2].decisionMaker 	lteMessagesSent:histogram
field count 10
field mean 1
field stddev 0
field sum 10
field sqrsum 10
field min 1
field max 1
attr source  lteMessagesSent
attr title  "lteMessagesSent, histogram"
bin	-INF	0
bin	0	0
bin	1	10
bin	2	0
statistic scenario.node[2].decisionMaker 	DSRCMessagesSent:stats
field count 0
field mean 0
field stddev -nan
field sum 0
field sqrsum 0
field min 0
field max 0
attr source  DSRCMessagesSent
attr title  "DSRCMessagesSent, stats"
statistic scenario.node[2].decisionMaker 	DSRCMessagesSent:histogram
field count 0
field mean 0
field stddev -nan
field sum 0
field sqrsum 0
field min 0
field max 0
attr source  DSRCMessagesSent
attr title  "DSRCMessagesSent, histogram"
bin	-INF	0
bin	-0.5	0
bin	-0.46666666666667	0
bin	-0.43333333333333	0
bin	-0.4	0
bin	-0.36666666666667	0
bin	-0.33333333333333	0
bin	-0.3	0
bin	-0.26666666666667	0
bin	-0.23333333333333	0
bin	-0.2	0
bin	-0.16666666666667	0
bin	-0.13333333333333	0
bin	-0.1	0
bin	-0.066666666666667	0
bin	-0.033333333333333	0
bin	0	0
bin	0.033333333333333	0
bin	0.066666666666667	0
bin	0.1	0
bin	0.13333333333333	0
bin	0.16666666666667	0
bin	0.2	0
bin	0.23333333333333	0
bin	0.26666666666667	0
bin	0.3	0
bin	0.33333333333333	0
bin	0.36666666666667	0
bin	0.4	0
bin	0.43333333333333	0
bin	0.46666666666667	0
bin	0.5	0
scalar scenario.node[2].networkLayer.arp 	failedARPResolution:count 	0
attr title  "ARP failed resolutions, count"
scalar scenario.node[2].networkLayer.arp 	completedARPResolution:count 	0
attr title  "ARP completed resolutions, count"
scalar scenario.node[2].networkLayer.arp 	initiatedARPResolution:count 	0
attr title  "ARP initiated resolutions, count"
scalar scenario.node[2].networkLayer.arp 	sentReply:count 	0
attr title  "ARP replies sent, count"
scalar scenario.node[2].networkLayer.arp 	sentReq:count 	0
attr title  "ARP request sent, count"
scalar scenario.node[2].nic.pdcpRrc 	sentPacketToLowerLayer:count 	30
attr interpolationmode  none
attr source  sentPacketToLowerLayer
scalar scenario.node[2].nic.pdcpRrc 	sentPacketToLowerLayer:sum(packetBytes) 	1070
attr interpolationmode  none
attr source  sentPacketToLowerLayer
scalar scenario.node[2].nic.pdcpRrc 	sentPacketToUpperLayer:count 	10
attr interpolationmode  none
attr source  sentPacketToUpperLayer
scalar scenario.node[2].nic.pdcpRrc 	sentPacketToUpperLayer:sum(packetBytes) 	280
attr interpolationmode  none
attr source  sentPacketToUpperLayer
scalar scenario.node[2].nic.pdcpRrc 	receivedPacketFromLowerLayer:count 	10
attr interpolationmode  none
attr source  receivedPacketFromLowerLayer
scalar scenario.node[2].nic.pdcpRrc 	receivedPacketFromLowerLayer:sum(packetBytes) 	290
attr interpolationmode  none
attr source  receivedPacketFromLowerLayer
scalar scenario.node[2].nic.pdcpRrc 	receivedPacketFromUpperLayer:count 	30
attr interpolationmode  none
attr source  receivedPacketFromUpperLayer
scalar scenario.node[2].nic.pdcpRrc 	receivedPacketFromUpperLayer:sum(packetBytes) 	1040
attr interpolationmode  none
attr source  receivedPacketFromUpperLayer
scalar scenario.node[2].nic.mac 	measuredItbs:mean 	-nan
attr source  measuredItbs
attr title  "TBS index, mean"
attr unit  ""
scalar scenario.node[2].nic.mac 	harqErrorRate_4th_Dl:mean 	-nan
attr source  harqErrorRate_4th_Dl
attr title  "Harq Error Rate Dl, mean"
attr unit  ""
scalar scenario.node[2].nic.mac 	harqErrorRate_4th_Ul:mean 	-nan
attr source  harqErrorRate_4th_Ul
attr title  "Harq Error Rate Dl, mean"
attr unit  ""
scalar scenario.node[2].nic.mac 	harqErrorRate_3rd_Dl:mean 	-nan
attr source  harqErrorRate_3rd_Dl
attr title  "Harq Error Rate Dl, mean"
attr unit  ""
scalar scenario.node[2].nic.mac 	harqErrorRate_3rd_Ul:mean 	-nan
attr source  harqErrorRate_3rd_Ul
attr title  "Harq Error Rate Dl, mean"
attr unit  ""
scalar scenario.node[2].nic.mac 	harqErrorRate_2nd_Dl:mean 	-nan
attr source  harqErrorRate_2nd_Dl
attr title  "Harq Error Rate Dl, mean"
attr unit  ""
scalar scenario.node[2].nic.mac 	harqErrorRate_2nd_Ul:mean 	-nan
attr source  harqErrorRate_2nd_Ul
attr title  "Harq Error Rate Dl, mean"
attr unit  ""
scalar scenario.node[2].nic.mac 	harqErrorRate_1st_Dl:mean 	0
attr source  harqErrorRate_1st_Dl
attr title  "Harq Error Rate Dl, mean"
attr unit  ""
scalar scenario.node[2].nic.mac 	harqErrorRate_1st_Ul:mean 	0
attr source  harqErrorRate_1st_Ul
attr title  "Harq Error Rate Dl, mean"
attr unit  ""
scalar scenario.node[2].nic.mac 	harqErrorRateDl:mean 	0
attr source  harqErrorRateDl
attr title  "Harq Error Rate Dl, mean"
attr unit  ""
scalar scenario.node[2].nic.mac 	harqErrorRateUl:mean 	0
attr source  harqErrorRateUl
attr title  "Harq Error Rate Dl, mean"
attr unit  ""
scalar scenario.node[2].nic.mac 	macPacketLossDl:mean 	0
attr source  macPacketLossDl
attr title  "Mac Packet Loss, mean"
attr unit  ""
scalar scenario.node[2].nic.mac 	macPacketLossUl:mean 	0
attr source  macPacketLossUl
attr title  "Mac Packet Loss, mean"
attr unit  ""
scalar scenario.node[2].nic.mac 	macCellPacketLossUl:mean 	-nan
attr source  macCellPacketLossUl
attr title  "Mac Cell Packet Loss, mean"
attr unit  ""
scalar scenario.node[2].nic.mac 	macCellPacketLossDl:mean 	-nan
attr source  macCellPacketLossDl
attr title  "Mac Cell Packet Loss, mean"
attr unit  ""
scalar scenario.node[2].nic.mac 	sentPacketToLowerLayer:count 	83
attr interpolationmode  none
attr source  sentPacketToLowerLayer
scalar scenario.node[2].nic.mac 	sentPacketToLowerLayer:sum(packetBytes) 	0
attr interpolationmode  none
attr source  sentPacketToLowerLayer
scalar scenario.node[2].nic.mac 	sentPacketToUpperLayer:count 	20
attr interpolationmode  none
attr source  sentPacketToUpperLayer
scalar scenario.node[2].nic.mac 	sentPacketToUpperLayer:sum(packetBytes) 	310
attr interpolationmode  none
attr source  sentPacketToUpperLayer
scalar scenario.node[2].nic.mac 	receivedPacketFromLowerLayer:count 	149
attr interpolationmode  none
attr source  receivedPacketFromLowerLayer
scalar scenario.node[2].nic.mac 	receivedPacketFromLowerLayer:sum(packetBytes) 	0
attr interpolationmode  none
attr source  receivedPacketFromLowerLayer
scalar scenario.node[2].nic.mac 	receivedPacketFromUpperLayer:count 	60
attr interpolationmode  none
attr source  receivedPacketFromUpperLayer
scalar scenario.node[2].nic.mac 	receivedPacketFromUpperLayer:sum(packetBytes) 	1130
attr interpolationmode  none
attr source  receivedPacketFromUpperLayer
scalar scenario.node[2].UDP 	droppedPkBadChecksum:count 	0
attr interpolationmode  none
attr title  "packets dropped (checksum error), count"
scalar scenario.node[2].UDP 	droppedPkWrongPort:count 	0
attr interpolationmode  none
attr title  "packets dropped (wrong port), count"
scalar scenario.node[2].UDP 	passedUpPk:count 	10
attr interpolationmode  none
attr title  "packets passed up, count"
scalar scenario.node[2].UDP 	rcvdPk:count 	10
attr interpolationmode  none
attr source  rcvdPk
attr title  "packets received, count"
scalar scenario.node[2].UDP 	rcvdPk:sum(packetBytes) 	80
attr interpolationmode  none
attr source  rcvdPk
attr title  "packets received, sum(packetBytes)"
scalar scenario.node[2].UDP 	sentPk:count 	31
attr interpolationmode  none
attr source  sentPk
attr title  "packets sent, count"
scalar scenario.node[2].UDP 	sentPk:sum(packetBytes) 	458
attr interpolationmode  none
attr source  sentPk
attr title  "packets sent, sum(packetBytes)"
scalar scenario.node[4].mobility 	startTime 	10.4
scalar scenario.node[4].mobility 	totalTime 	54.6
scalar scenario.node[4].mobility 	stopTime 	54.7
scalar scenario.node[4].mobility 	minSpeed 	0.078665219856426
scalar scenario.node[4].mobility 	maxSpeed 	13.888801899143
scalar scenario.node[4].mobility 	totalDistance 	385.26145862055
scalar scenario.node[4].mobility 	totalCO2Emission 	96.752106303785
scalar scenario.node[4].nic80211p.phy80211p 	busyTime 	0.00020099322440181
scalar scenario.node[4].nic80211p.mac1609_4 	ReceivedUnicastPackets 	0
scalar scenario.node[4].nic80211p.mac1609_4 	ReceivedBroadcasts 	124
scalar scenario.node[4].nic80211p.mac1609_4 	SentPackets 	23
scalar scenario.node[4].nic80211p.mac1609_4 	SNIRLostPackets 	35
scalar scenario.node[4].nic80211p.mac1609_4 	RXTXLostPackets 	10
scalar scenario.node[4].nic80211p.mac1609_4 	TotalLostPackets 	45
scalar scenario.node[4].nic80211p.mac1609_4 	DroppedPacketsInMac 	0
scalar scenario.node[4].nic80211p.mac1609_4 	TooLittleTime 	0
scalar scenario.node[4].nic80211p.mac1609_4 	TimesIntoBackoff 	23
scalar scenario.node[4].nic80211p.mac1609_4 	SlotsBackoff 	35
scalar scenario.node[4].nic80211p.mac1609_4 	NumInternalContention 	0
scalar scenario.node[4].nic80211p.mac1609_4 	totalBusyTime 	0.009207314666
scalar scenario.node[4].veinsmobility 	startTime 	10.4
scalar scenario.node[4].veinsmobility 	totalTime 	44.2
scalar scenario.node[4].veinsmobility 	stopTime 	54.7
scalar scenario.node[4].veinsmobility 	minSpeed 	0.078665219856426
scalar scenario.node[4].veinsmobility 	maxSpeed 	13.888801899143
scalar scenario.node[4].veinsmobility 	totalDistance 	385.26145862055
scalar scenario.node[4].veinsmobility 	totalCO2Emission 	96.752106303785
statistic scenario.node[4].decisionMaker 	lteMessagesReceived:stats
field count 9
field mean 1
field stddev 0
field sum 9
field sqrsum 9
field min 1
field max 1
attr source  lteMessagesReceived
attr title  "lteMessagesReceived, stats"
statistic scenario.node[4].decisionMaker 	lteMessagesReceived:histogram
field count 9
field mean 1
field stddev 0
field sum 9
field sqrsum 9
field min 1
field max 1
attr source  lteMessagesReceived
attr title  "lteMessagesReceived, histogram"
bin	-INF	0
bin	0	0
bin	1	9
bin	2	0
statistic scenario.node[4].decisionMaker 	DSRCMessagesReceived:stats
field count 124
field mean 1
field stddev 0
field sum 124
field sqrsum 124
field min 1
field max 1
attr source  DSRCMessagesReceived
attr title  "DSRCMessagesReceived, stats"
statistic scenario.node[4].decisionMaker 	DSRCMessagesReceived:histogram
field count 124
field mean 1
field stddev 0
field sum 124
field sqrsum 124
field min 1
field max 1
attr source  DSRCMessagesReceived
attr title  "DSRCMessagesReceived, histogram"
bin	-INF	0
bin	0	0
bin	1	124
bin	2	0
statistic scenario.node[4].decisionMaker 	dontCareMessagesSent:stats
field count 44
field mean 1
field stddev 0
field sum 44
field sqrsum 44
field min 1
field max 1
attr source  dontCareMessagesSent
attr title  "dontCareMessagesSent, stats"
statistic scenario.node[4].decisionMaker 	dontCareMessagesSent:histogram
field count 44
field mean 1
field stddev 0
field sum 44
field sqrsum 44
field min 1
field max 1
attr source  dontCareMessagesSent
attr title  "dontCareMessagesSent, histogram"
bin	-INF	0
bin	0	0
bin	1	44
bin	2	0
statistic scenario.node[4].decisionMaker 	lteMessagesSent:stats
field count 9
field mean 1
field stddev 0
field sum 9
field sqrsum 9
field min 1
field max 1
attr source  lteMessagesSent
attr title  "lteMessagesSent, stats"
statistic scenario.node[4].decisionMaker 	lteMessagesSent:histogram
field count 9
field mean 1
field stddev 0
field sum 9
field sqrsum 9
field min 1
field max 1
attr source  lteMessagesSent
attr title  "lteMessagesSent, histogram"
bin	-INF	0
bin	0	0
bin	1	9
bin	2	0
statistic scenario.node[4].decisionMaker 	DSRCMessagesSent:stats
field count 0
field mean 0
field stddev -nan
field sum 0
field sqrsum 0
field min 0
field max 0
attr source  DSRCMessagesSent
attr title  "DSRCMessagesSent, stats"
statistic scenario.node[4].decisionMaker 	DSRCMessagesSent:histogram
field count 0
field mean 0
field stddev -nan
field sum 0
field sqrsum 0
field min 0
field max 0
attr source  DSRCMessagesSent
attr title  "DSRCMessagesSent, histogram"
bin	-INF	0
bin	-0.5	0
bin	-0.46666666666667	0
bin	-0.43333333333333	0
bin	-0.4	0
bin	-0.36666666666667	0
bin	-0.33333333333333	0
bin	-0.3	0
bin	-0.26666666666667	0
bin	-0.23333333333333	0
bin	-0.2	0
bin	-0.16666666666667	0
bin	-0.13333333333333	0
bin	-0.1	0
bin	-0.066666666666667	0
bin	-0.033333333333333	0
bin	0	0
bin	0.033333333333333	0
bin	0.066666666666667	0
bin	0.1	0
bin	0.13333333333333	0
bin	0.16666666666667	0
bin	0.2	0
bin	0.23333333333333	0
bin	0.26666666666667	0
bin	0.3	0
bin	0.33333333333333	0
bin	0.36666666666667	0
bin	0.4	0
bin	0.43333333333333	0
bin	0.46666666666667	0
bin	0.5	0
scalar scenario.node[4].networkLayer.arp 	failedARPResolution:count 	0
attr title  "ARP failed resolutions, count"
scalar scenario.node[4].networkLayer.arp 	completedARPResolution:count 	0
attr title  "ARP completed resolutions, count"
scalar scenario.node[4].networkLayer.arp 	initiatedARPResolution:count 	0
attr title  "ARP initiated resolutions, count"
scalar scenario.node[4].networkLayer.arp 	sentReply:count 	0
attr title  "ARP replies sent, count"
scalar scenario.node[4].networkLayer.arp 	sentReq:count 	0
attr title  "ARP request sent, count"
scalar scenario.node[4].nic.pdcpRrc 	sentPacketToLowerLayer:count 	29
attr interpolationmode  none
attr source  sentPacketToLowerLayer
scalar scenario.node[4].nic.pdcpRrc 	sentPacketToLowerLayer:sum(packetBytes) 	1041
attr interpolationmode  none
attr source  sentPacketToLowerLayer
scalar scenario.node[4].nic.pdcpRrc 	sentPacketToUpperLayer:count 	9
attr interpolationmode  none
attr source  sentPacketToUpperLayer
scalar scenario.node[4].nic.pdcpRrc 	sentPacketToUpperLayer:sum(packetBytes) 	252
attr interpolationmode  none
attr source  sentPacketToUpperLayer
scalar scenario.node[4].nic.pdcpRrc 	receivedPacketFromLowerLayer:count 	9
attr interpolationmode  none
attr source  receivedPacketFromLowerLayer
scalar scenario.node[4].nic.pdcpRrc 	receivedPacketFromLowerLayer:sum(packetBytes) 	261
attr interpolationmode  none
attr source  receivedPacketFromLowerLayer
scalar scenario.node[4].nic.pdcpRrc 	receivedPacketFromUpperLayer:count 	29
attr interpolationmode  none
attr source  receivedPacketFromUpperLayer
scalar scenario.node[4].nic.pdcpRrc 	receivedPacketFromUpperLayer:sum(packetBytes) 	1012
attr interpolationmode  none
attr source  receivedPacketFromUpperLayer
scalar scenario.node[4].nic.mac 	measuredItbs:mean 	-nan
attr source  measuredItbs
attr title  "TBS index, mean"
attr unit  ""
scalar scenario.node[4].nic.mac 	harqErrorRate_4th_Dl:mean 	-nan
attr source  harqErrorRate_4th_Dl
attr title  "Harq Error Rate Dl, mean"
attr unit  ""
scalar scenario.node[4].nic.mac 	harqErrorRate_4th_Ul:mean 	-nan
attr source  harqErrorRate_4th_Ul
attr title  "Harq Error Rate Dl, mean"
attr unit  ""
scalar scenario.node[4].nic.mac 	harqErrorRate_3rd_Dl:mean 	-nan
attr source  harqErrorRate_3rd_Dl
attr title  "Harq Error Rate Dl, mean"
attr unit  ""
scalar scenario.node[4].nic.mac 	harqErrorRate_3rd_Ul:mean 	0
attr source  harqErrorRate_3rd_Ul
attr title  "Harq Error Rate Dl, mean"
attr unit  ""
scalar scenario.node[4].nic.mac 	harqErrorRate_2nd_Dl:mean 	-nan
attr source  harqErrorRate_2nd_Dl
attr title  "Harq Error Rate Dl, mean"
attr unit  ""
scalar scenario.node[4].nic.mac 	harqErrorRate_2nd_Ul:mean 	0.076923076923077
attr source  harqErrorRate_2nd_Ul
attr title  "Harq Error Rate Dl, mean"
attr unit  ""
scalar scenario.node[4].nic.mac 	harqErrorRate_1st_Dl:mean 	0
attr source  harqErrorRate_1st_Dl
attr title  "Harq Error Rate Dl, mean"
attr unit  ""
scalar scenario.node[4].nic.mac 	harqErrorRate_1st_Ul:mean 	0.22033898305085
attr source  harqErrorRate_1st_Ul
attr title  "Harq Error Rate Dl, mean"
attr unit  ""
scalar scenario.node[4].nic.mac 	harqErrorRateDl:mean 	0
attr source  harqErrorRateDl
attr title  "Harq Error Rate Dl, mean"
attr unit  ""
scalar scenario.node[4].nic.mac 	harqErrorRateUl:mean 	0.19178082191781
attr source  harqErrorRateUl
attr title  "Harq Error Rate Dl, mean"
attr unit  ""
scalar scenario.node[4].nic.mac 	macPacketLossDl:mean 	0
attr source  macPacketLossDl
attr title  "Mac Packet Loss, mean"
attr unit  ""
scalar scenario.node[4].nic.mac 	macPacketLossUl:mean 	0
attr source  macPacketLossUl
attr title  "Mac Packet Loss, mean"
attr unit  ""
scalar scenario.node[4].nic.mac 	macCellPacketLossUl:mean 	-nan
attr source  macCellPacketLossUl
attr title  "Mac Cell Packet Loss, mean"
attr unit  ""
scalar scenario.node[4].nic.mac 	macCellPacketLossDl:mean 	-nan
attr source  macCellPacketLossDl
attr title  "Mac Cell Packet Loss, mean"
attr unit  ""
scalar scenario.node[4].nic.mac 	sentPacketToLowerLayer:count 	126
attr interpolationmode  none
attr source  sentPacketToLowerLayer
scalar scenario.node[4].nic.mac 	sentPacketToLowerLayer:sum(packetBytes) 	0
attr interpolationmode  none
attr source  sentPacketToLowerLayer
scalar scenario.node[4].nic.mac 	sentPacketToUpperLayer:count 	18
attr interpolationmode  none
attr source  sentPacketToUpperLayer
scalar scenario.node[4].nic.mac 	sentPacketToUpperLayer:sum(packetBytes) 	279
attr interpolationmode  none
attr source  sentPacketToUpperLayer
scalar scenario.node[4].nic.mac 	receivedPacketFromLowerLayer:count 	226
attr interpolationmode  none
attr source  receivedPacketFromLowerLayer
scalar scenario.node[4].nic.mac 	receivedPacketFromLowerLayer:sum(packetBytes) 	0
attr interpolationmode  none
attr source  receivedPacketFromLowerLayer
scalar scenario.node[4].nic.mac 	receivedPacketFromUpperLayer:count 	58
attr interpolationmode  none
attr source  receivedPacketFromUpperLayer
scalar scenario.node[4].nic.mac 	receivedPacketFromUpperLayer:sum(packetBytes) 	1099
attr interpolationmode  none
attr source  receivedPacketFromUpperLayer
scalar scenario.node[4].UDP 	droppedPkBadChecksum:count 	0
attr interpolationmode  none
attr title  "packets dropped (checksum error), count"
scalar scenario.node[4].UDP 	droppedPkWrongPort:count 	0
attr interpolationmode  none
attr title  "packets dropped (wrong port), count"
scalar scenario.node[4].UDP 	passedUpPk:count 	9
attr interpolationmode  none
attr title  "packets passed up, count"
scalar scenario.node[4].UDP 	rcvdPk:count 	9
attr interpolationmode  none
attr source  rcvdPk
attr title  "packets received, count"
scalar scenario.node[4].UDP 	rcvdPk:sum(packetBytes) 	72
attr interpolationmode  none
attr source  rcvdPk
attr title  "packets received, sum(packetBytes)"
scalar scenario.node[4].UDP 	sentPk:count 	30
attr interpolationmode  none
attr source  sentPk
attr title  "packets sent, count"
scalar scenario.node[4].UDP 	sentPk:sum(packetBytes) 	450
attr interpolationmode  none
attr source  sentPk
attr title  "packets sent, sum(packetBytes)"
scalar scenario.node[5].mobility 	startTime 	10.7
scalar scenario.node[5].mobility 	totalTime 	54.6
scalar scenario.node[5].mobility 	stopTime 	54.7
scalar scenario.node[5].mobility 	minSpeed 	0.079595295097679
scalar scenario.node[5].mobility 	maxSpeed 	13.889994104244
scalar scenario.node[5].mobility 	totalDistance 	385.36770749467
scalar scenario.node[5].mobility 	totalCO2Emission 	96.464892437957
scalar scenario.node[5].nic80211p.phy80211p 	busyTime 	0.0002163636325
scalar scenario.node[5].nic80211p.mac1609_4 	ReceivedUnicastPackets 	0
scalar scenario.node[5].nic80211p.mac1609_4 	ReceivedBroadcasts 	120
scalar scenario.node[5].nic80211p.mac1609_4 	SentPackets 	21
scalar scenario.node[5].nic80211p.mac1609_4 	SNIRLostPackets 	50
scalar scenario.node[5].nic80211p.mac1609_4 	RXTXLostPackets 	0
scalar scenario.node[5].nic80211p.mac1609_4 	TotalLostPackets 	50
scalar scenario.node[5].nic80211p.mac1609_4 	DroppedPacketsInMac 	0
scalar scenario.node[5].nic80211p.mac1609_4 	TooLittleTime 	0
scalar scenario.node[5].nic80211p.mac1609_4 	TimesIntoBackoff 	21
scalar scenario.node[5].nic80211p.mac1609_4 	SlotsBackoff 	27
scalar scenario.node[5].nic80211p.mac1609_4 	NumInternalContention 	0
scalar scenario.node[5].nic80211p.mac1609_4 	totalBusyTime 	0.009149019878
scalar scenario.node[5].veinsmobility 	startTime 	10.7
scalar scenario.node[5].veinsmobility 	totalTime 	43.9
scalar scenario.node[5].veinsmobility 	stopTime 	54.7
scalar scenario.node[5].veinsmobility 	minSpeed 	0.079595295097679
scalar scenario.node[5].veinsmobility 	maxSpeed 	13.889994104244
scalar scenario.node[5].veinsmobility 	totalDistance 	385.36770749467
scalar scenario.node[5].veinsmobility 	totalCO2Emission 	96.464892437957
statistic scenario.node[5].decisionMaker 	lteMessagesReceived:stats
field count 12
field mean 1
field stddev 0
field sum 12
field sqrsum 12
field min 1
field max 1
attr source  lteMessagesReceived
attr title  "lteMessagesReceived, stats"
statistic scenario.node[5].decisionMaker 	lteMessagesReceived:histogram
field count 12
field mean 1
field stddev 0
field sum 12
field sqrsum 12
field min 1
field max 1
attr source  lteMessagesReceived
attr title  "lteMessagesReceived, histogram"
bin	-INF	0
bin	0	0
bin	1	12
bin	2	0
statistic scenario.node[5].decisionMaker 	DSRCMessagesReceived:stats
field count 120
field mean 1
field stddev 0
field sum 120
field sqrsum 120
field min 1
field max 1
attr source  DSRCMessagesReceived
attr title  "DSRCMessagesReceived, stats"
statistic scenario.node[5].decisionMaker 	DSRCMessagesReceived:histogram
field count 120
field mean 1
field stddev 0
field sum 120
field sqrsum 120
field min 1
field max 1
attr source  DSRCMessagesReceived
attr title  "DSRCMessagesReceived, histogram"
bin	-INF	0
bin	0	0
bin	1	120
bin	2	0
statistic scenario.node[5].decisionMaker 	dontCareMessagesSent:stats
field count 44
field mean 1
field stddev 0
field sum 44
field sqrsum 44
field min 1
field max 1
attr source  dontCareMessagesSent
attr title  "dontCareMessagesSent, stats"
statistic scenario.node[5].decisionMaker 	dontCareMessagesSent:histogram
field count 44
field mean 1
field stddev 0
field sum 44
field sqrsum 44
field min 1
field max 1
attr source  dontCareMessagesSent
attr title  "dontCareMessagesSent, histogram"
bin	-INF	0
bin	0	0
bin	1	44
bin	2	0
statistic scenario.node[5].decisionMaker 	lteMessagesSent:stats
field count 14
field mean 1
field stddev 0
field sum 14
field sqrsum 14
field min 1
field max 1
attr source  lteMessagesSent
attr title  "lteMessagesSent, stats"
statistic scenario.node[5].decisionMaker 	lteMessagesSent:histogram
field count 14
field mean 1
field stddev 0
field sum 14
field sqrsum 14
field min 1
field max 1
attr source  lteMessagesSent
attr title  "lteMessagesSent, histogram"
bin	-INF	0
bin	0	0
bin	1	14
bin	2	0
statistic scenario.node[5].decisionMaker 	DSRCMessagesSent:stats
field count 0
field mean 0
field stddev -nan
field sum 0
field sqrsum 0
field min 0
field max 0
attr source  DSRCMessagesSent
attr title  "DSRCMessagesSent, stats"
statistic scenario.node[5].decisionMaker 	DSRCMessagesSent:histogram
field count 0
field mean 0
field stddev -nan
field sum 0
field sqrsum 0
field min 0
field max 0
attr source  DSRCMessagesSent
attr title  "DSRCMessagesSent, histogram"
bin	-INF	0
bin	-0.5	0
bin	-0.46666666666667	0
bin	-0.43333333333333	0
bin	-0.4	0
bin	-0.36666666666667	0
bin	-0.33333333333333	0
bin	-0.3	0
bin	-0.26666666666667	0
bin	-0.23333333333333	0
bin	-0.2	0
bin	-0.16666666666667	0
bin	-0.13333333333333	0
bin	-0.1	0
bin	-0.066666666666667	0
bin	-0.033333333333333	0
bin	0	0
bin	0.033333333333333	0
bin	0.066666666666667	0
bin	0.1	0
bin	0.13333333333333	0
bin	0.16666666666667	0
bin	0.2	0
bin	0.23333333333333	0
bin	0.26666666666667	0
bin	0.3	0
bin	0.33333333333333	0
bin	0.36666666666667	0
bin	0.4	0
bin	0.43333333333333	0
bin	0.46666666666667	0
bin	0.5	0
scalar scenario.node[5].networkLayer.arp 	failedARPResolution:count 	0
attr title  "ARP failed resolutions, count"
scalar scenario.node[5].networkLayer.arp 	completedARPResolution:count 	0
attr title  "ARP completed resolutions, count"
scalar scenario.node[5].networkLayer.arp 	initiatedARPResolution:count 	0
attr title  "ARP initiated resolutions, count"
scalar scenario.node[5].networkLayer.arp 	sentReply:count 	0
attr title  "ARP replies sent, count"
scalar scenario.node[5].networkLayer.arp 	sentReq:count 	0
attr title  "ARP request sent, count"
scalar scenario.node[5].nic.pdcpRrc 	sentPacketToLowerLayer:count 	37
attr interpolationmode  none
attr source  sentPacketToLowerLayer
scalar scenario.node[5].nic.pdcpRrc 	sentPacketToLowerLayer:sum(packetBytes) 	1303
attr interpolationmode  none
attr source  sentPacketToLowerLayer
scalar scenario.node[5].nic.pdcpRrc 	sentPacketToUpperLayer:count 	12
attr interpolationmode  none
attr source  sentPacketToUpperLayer
scalar scenario.node[5].nic.pdcpRrc 	sentPacketToUpperLayer:sum(packetBytes) 	336
attr interpolationmode  none
attr source  sentPacketToUpperLayer
scalar scenario.node[5].nic.pdcpRrc 	receivedPacketFromLowerLayer:count 	12
attr interpolationmode  none
attr source  receivedPacketFromLowerLayer
scalar scenario.node[5].nic.pdcpRrc 	receivedPacketFromLowerLayer:sum(packetBytes) 	348
attr interpolationmode  none
attr source  receivedPacketFromLowerLayer
scalar scenario.node[5].nic.pdcpRrc 	receivedPacketFromUpperLayer:count 	37
attr interpolationmode  none
attr source  receivedPacketFromUpperLayer
scalar scenario.node[5].nic.pdcpRrc 	receivedPacketFromUpperLayer:sum(packetBytes) 	1266
attr interpolationmode  none
attr source  receivedPacketFromUpperLayer
scalar scenario.node[5].nic.mac 	measuredItbs:mean 	-nan
attr source  measuredItbs
attr title  "TBS index, mean"
attr unit  ""
scalar scenario.node[5].nic.mac 	harqErrorRate_4th_Dl:mean 	-nan
attr source  harqErrorRate_4th_Dl
attr title  "Harq Error Rate Dl, mean"
attr unit  ""
scalar scenario.node[5].nic.mac 	harqErrorRate_4th_Ul:mean 	1
attr source  harqErrorRate_4th_Ul
attr title  "Harq Error Rate Dl, mean"
attr unit  ""
scalar scenario.node[5].nic.mac 	harqErrorRate_3rd_Dl:mean 	-nan
attr source  harqErrorRate_3rd_Dl
attr title  "Harq Error Rate Dl, mean"
attr unit  ""
scalar scenario.node[5].nic.mac 	harqErrorRate_3rd_Ul:mean 	0.58333333333333
attr source  harqErrorRate_3rd_Ul
attr title  "Harq Error Rate Dl, mean"
attr unit  ""
scalar scenario.node[5].nic.mac 	harqErrorRate_2nd_Dl:mean 	-nan
attr source  harqErrorRate_2nd_Dl
attr title  "Harq Error Rate Dl, mean"
attr unit  ""
scalar scenario.node[5].nic.mac 	harqErrorRate_2nd_Ul:mean 	0.5
attr source  harqErrorRate_2nd_Ul
attr title  "Harq Error Rate Dl, mean"
attr unit  ""
scalar scenario.node[5].nic.mac 	harqErrorRate_1st_Dl:mean 	0
attr source  harqErrorRate_1st_Dl
attr title  "Harq Error Rate Dl, mean"
attr unit  ""
scalar scenario.node[5].nic.mac 	harqErrorRate_1st_Ul:mean 	0.32432432432432
attr source  harqErrorRate_1st_Ul
attr title  "Harq Error Rate Dl, mean"
attr unit  ""
scalar scenario.node[5].nic.mac 	harqErrorRateDl:mean 	0
attr source  harqErrorRateDl
attr title  "Harq Error Rate Dl, mean"
attr unit  ""
scalar scenario.node[5].nic.mac 	harqErrorRateUl:mean 	0.42735042735043
attr source  harqErrorRateUl
attr title  "Harq Error Rate Dl, mean"
attr unit  ""
scalar scenario.node[5].nic.mac 	macPacketLossDl:mean 	0
attr source  macPacketLossDl
attr title  "Mac Packet Loss, mean"
attr unit  ""
scalar scenario.node[5].nic.mac 	macPacketLossUl:mean 	0.094594594594595
attr source  macPacketLossUl
attr title  "Mac Packet Loss, mean"
attr unit  ""
scalar scenario.node[5].nic.mac 	macCellPacketLossUl:mean 	-nan
attr source  macCellPacketLossUl
attr title  "Mac Cell Packet Loss, mean"
attr unit  ""
scalar scenario.node[5].nic.mac 	macCellPacketLossDl:mean 	-nan
attr source  macCellPacketLossDl
attr title  "Mac Cell Packet Loss, mean"
attr unit  ""
scalar scenario.node[5].nic.mac 	sentPacketToLowerLayer:count 	181
attr interpolationmode  none
attr source  sentPacketToLowerLayer
scalar scenario.node[5].nic.mac 	sentPacketToLowerLayer:sum(packetBytes) 	0
attr interpolationmode  none
attr source  sentPacketToLowerLayer
scalar scenario.node[5].nic.mac 	sentPacketToUpperLayer:count 	24
attr interpolationmode  none
attr source  sentPacketToUpperLayer
scalar scenario.node[5].nic.mac 	sentPacketToUpperLayer:sum(packetBytes) 	372
attr interpolationmode  none
attr source  sentPacketToUpperLayer
scalar scenario.node[5].nic.mac 	receivedPacketFromLowerLayer:count 	324
attr interpolationmode  none
attr source  receivedPacketFromLowerLayer
scalar scenario.node[5].nic.mac 	receivedPacketFromLowerLayer:sum(packetBytes) 	0
attr interpolationmode  none
attr source  receivedPacketFromLowerLayer
scalar scenario.node[5].nic.mac 	receivedPacketFromUpperLayer:count 	74
attr interpolationmode  none
attr source  receivedPacketFromUpperLayer
scalar scenario.node[5].nic.mac 	receivedPacketFromUpperLayer:sum(packetBytes) 	1377
attr interpolationmode  none
attr source  receivedPacketFromUpperLayer
scalar scenario.node[5].UDP 	droppedPkBadChecksum:count 	0
attr interpolationmode  none
attr title  "packets dropped (checksum error), count"
scalar scenario.node[5].UDP 	droppedPkWrongPort:count 	0
attr interpolationmode  none
attr title  "packets dropped (wrong port), count"
scalar scenario.node[5].UDP 	passedUpPk:count 	12
attr interpolationmode  none
attr title  "packets passed up, count"
scalar scenario.node[5].UDP 	rcvdPk:count 	12
attr interpolationmode  none
attr source  rcvdPk
attr title  "packets received, count"
scalar scenario.node[5].UDP 	rcvdPk:sum(packetBytes) 	96
attr interpolationmode  none
attr source  rcvdPk
attr title  "packets received, sum(packetBytes)"
scalar scenario.node[5].UDP 	sentPk:count 	37
attr interpolationmode  none
attr source  sentPk
attr title  "packets sent, count"
scalar scenario.node[5].UDP 	sentPk:sum(packetBytes) 	526
attr interpolationmode  none
attr source  sentPk
attr title  "packets sent, sum(packetBytes)"
scalar scenario.node[6].mobility 	startTime 	15.5
scalar scenario.node[6].mobility 	totalTime 	59.8
scalar scenario.node[6].mobility 	stopTime 	59.9
scalar scenario.node[6].mobility 	minSpeed 	0.072590296538547
scalar scenario.node[6].mobility 	maxSpeed 	13.889779359512
scalar scenario.node[6].mobility 	totalDistance 	385.7302302984
scalar scenario.node[6].mobility 	totalCO2Emission 	96.678919041046
scalar scenario.node[6].nic80211p.phy80211p 	busyTime 	0.00019423423076577
scalar scenario.node[6].nic80211p.mac1609_4 	ReceivedUnicastPackets 	0
scalar scenario.node[6].nic80211p.mac1609_4 	ReceivedBroadcasts 	130
scalar scenario.node[6].nic80211p.mac1609_4 	SentPackets 	23
scalar scenario.node[6].nic80211p.mac1609_4 	SNIRLostPackets 	24
scalar scenario.node[6].nic80211p.mac1609_4 	RXTXLostPackets 	11
scalar scenario.node[6].nic80211p.mac1609_4 	TotalLostPackets 	35
scalar scenario.node[6].nic80211p.mac1609_4 	DroppedPacketsInMac 	0
scalar scenario.node[6].nic80211p.mac1609_4 	TooLittleTime 	0
scalar scenario.node[6].nic80211p.mac1609_4 	TimesIntoBackoff 	23
scalar scenario.node[6].nic80211p.mac1609_4 	SlotsBackoff 	34
scalar scenario.node[6].nic80211p.mac1609_4 	NumInternalContention 	0
scalar scenario.node[6].nic80211p.mac1609_4 	totalBusyTime 	0.009151023747
scalar scenario.node[6].veinsmobility 	startTime 	15.5
scalar scenario.node[6].veinsmobility 	totalTime 	44.3
scalar scenario.node[6].veinsmobility 	stopTime 	59.9
scalar scenario.node[6].veinsmobility 	minSpeed 	0.072590296538547
scalar scenario.node[6].veinsmobility 	maxSpeed 	13.889779359512
scalar scenario.node[6].veinsmobility 	totalDistance 	385.7302302984
scalar scenario.node[6].veinsmobility 	totalCO2Emission 	96.678919041046
statistic scenario.node[6].decisionMaker 	lteMessagesReceived:stats
field count 16
field mean 1
field stddev 0
field sum 16
field sqrsum 16
field min 1
field max 1
attr source  lteMessagesReceived
attr title  "lteMessagesReceived, stats"
statistic scenario.node[6].decisionMaker 	lteMessagesReceived:histogram
field count 16
field mean 1
field stddev 0
field sum 16
field sqrsum 16
field min 1
field max 1
attr source  lteMessagesReceived
attr title  "lteMessagesReceived, histogram"
bin	-INF	0
bin	0	0
bin	1	16
bin	2	0
statistic scenario.node[6].decisionMaker 	DSRCMessagesReceived:stats
field count 130
field mean 1
field stddev 0
field sum 130
field sqrsum 130
field min 1
field max 1
attr source  DSRCMessagesReceived
attr title  "DSRCMessagesReceived, stats"
statistic scenario.node[6].decisionMaker 	DSRCMessagesReceived:histogram
field count 130
field mean 1
field stddev 0
field sum 130
field sqrsum 130
field min 1
field max 1
attr source  DSRCMessagesReceived
attr title  "DSRCMessagesReceived, histogram"
bin	-INF	0
bin	0	0
bin	1	130
bin	2	0
statistic scenario.node[6].decisionMaker 	dontCareMessagesSent:stats
field count 44
field mean 1
field stddev 0
field sum 44
field sqrsum 44
field min 1
field max 1
attr source  dontCareMessagesSent
attr title  "dontCareMessagesSent, stats"
statistic scenario.node[6].decisionMaker 	dontCareMessagesSent:histogram
field count 44
field mean 1
field stddev 0
field sum 44
field sqrsum 44
field min 1
field max 1
attr source  dontCareMessagesSent
attr title  "dontCareMessagesSent, histogram"
bin	-INF	0
bin	0	0
bin	1	44
bin	2	0
statistic scenario.node[6].decisionMaker 	lteMessagesSent:stats
field count 16
field mean 1
field stddev 0
field sum 16
field sqrsum 16
field min 1
field max 1
attr source  lteMessagesSent
attr title  "lteMessagesSent, stats"
statistic scenario.node[6].decisionMaker 	lteMessagesSent:histogram
field count 16
field mean 1
field stddev 0
field sum 16
field sqrsum 16
field min 1
field max 1
attr source  lteMessagesSent
attr title  "lteMessagesSent, histogram"
bin	-INF	0
bin	0	0
bin	1	16
bin	2	0
statistic scenario.node[6].decisionMaker 	DSRCMessagesSent:stats
field count 0
field mean 0
field stddev -nan
field sum 0
field sqrsum 0
field min 0
field max 0
attr source  DSRCMessagesSent
attr title  "DSRCMessagesSent, stats"
statistic scenario.node[6].decisionMaker 	DSRCMessagesSent:histogram
field count 0
field mean 0
field stddev -nan
field sum 0
field sqrsum 0
field min 0
field max 0
attr source  DSRCMessagesSent
attr title  "DSRCMessagesSent, histogram"
bin	-INF	0
bin	-0.5	0
bin	-0.46666666666667	0
bin	-0.43333333333333	0
bin	-0.4	0
bin	-0.36666666666667	0
bin	-0.33333333333333	0
bin	-0.3	0
bin	-0.26666666666667	0
bin	-0.23333333333333	0
bin	-0.2	0
bin	-0.16666666666667	0
bin	-0.13333333333333	0
bin	-0.1	0
bin	-0.066666666666667	0
bin	-0.033333333333333	0
bin	0	0
bin	0.033333333333333	0
bin	0.066666666666667	0
bin	0.1	0
bin	0.13333333333333	0
bin	0.16666666666667	0
bin	0.2	0
bin	0.23333333333333	0
bin	0.26666666666667	0
bin	0.3	0
bin	0.33333333333333	0
bin	0.36666666666667	0
bin	0.4	0
bin	0.43333333333333	0
bin	0.46666666666667	0
bin	0.5	0
scalar scenario.node[6].networkLayer.arp 	failedARPResolution:count 	0
attr title  "ARP failed resolutions, count"
scalar scenario.node[6].networkLayer.arp 	completedARPResolution:count 	0
attr title  "ARP completed resolutions, count"
scalar scenario.node[6].networkLayer.arp 	initiatedARPResolution:count 	0
attr title  "ARP initiated resolutions, count"
scalar scenario.node[6].networkLayer.arp 	sentReply:count 	0
attr title  "ARP replies sent, count"
scalar scenario.node[6].networkLayer.arp 	sentReq:count 	0
attr title  "ARP request sent, count"
scalar scenario.node[6].nic.pdcpRrc 	sentPacketToLowerLayer:count 	35
attr interpolationmode  none
attr source  sentPacketToLowerLayer
scalar scenario.node[6].nic.pdcpRrc 	sentPacketToLowerLayer:sum(packetBytes) 	1205
attr interpolationmode  none
attr source  sentPacketToLowerLayer
scalar scenario.node[6].nic.pdcpRrc 	sentPacketToUpperLayer:count 	16
attr interpolationmode  none
attr source  sentPacketToUpperLayer
scalar scenario.node[6].nic.pdcpRrc 	sentPacketToUpperLayer:sum(packetBytes) 	448
attr interpolationmode  none
attr source  sentPacketToUpperLayer
scalar scenario.node[6].nic.pdcpRrc 	receivedPacketFromLowerLayer:count 	16
attr interpolationmode  none
attr source  receivedPacketFromLowerLayer
scalar scenario.node[6].nic.pdcpRrc 	receivedPacketFromLowerLayer:sum(packetBytes) 	464
attr interpolationmode  none
attr source  receivedPacketFromLowerLayer
scalar scenario.node[6].nic.pdcpRrc 	receivedPacketFromUpperLayer:count 	35
attr interpolationmode  none
attr source  receivedPacketFromUpperLayer
scalar scenario.node[6].nic.pdcpRrc 	receivedPacketFromUpperLayer:sum(packetBytes) 	1170
attr interpolationmode  none
attr source  receivedPacketFromUpperLayer
scalar scenario.node[6].nic.mac 	measuredItbs:mean 	-nan
attr source  measuredItbs
attr title  "TBS index, mean"
attr unit  ""
scalar scenario.node[6].nic.mac 	harqErrorRate_4th_Dl:mean 	-nan
attr source  harqErrorRate_4th_Dl
attr title  "Harq Error Rate Dl, mean"
attr unit  ""
scalar scenario.node[6].nic.mac 	harqErrorRate_4th_Ul:mean 	-nan
attr source  harqErrorRate_4th_Ul
attr title  "Harq Error Rate Dl, mean"
attr unit  ""
scalar scenario.node[6].nic.mac 	harqErrorRate_3rd_Dl:mean 	-nan
attr source  harqErrorRate_3rd_Dl
attr title  "Harq Error Rate Dl, mean"
attr unit  ""
scalar scenario.node[6].nic.mac 	harqErrorRate_3rd_Ul:mean 	0
attr source  harqErrorRate_3rd_Ul
attr title  "Harq Error Rate Dl, mean"
attr unit  ""
scalar scenario.node[6].nic.mac 	harqErrorRate_2nd_Dl:mean 	-nan
attr source  harqErrorRate_2nd_Dl
attr title  "Harq Error Rate Dl, mean"
attr unit  ""
scalar scenario.node[6].nic.mac 	harqErrorRate_2nd_Ul:mean 	0.22222222222222
attr source  harqErrorRate_2nd_Ul
attr title  "Harq Error Rate Dl, mean"
attr unit  ""
scalar scenario.node[6].nic.mac 	harqErrorRate_1st_Dl:mean 	0
attr source  harqErrorRate_1st_Dl
attr title  "Harq Error Rate Dl, mean"
attr unit  ""
scalar scenario.node[6].nic.mac 	harqErrorRate_1st_Ul:mean 	0.12857142857143
attr source  harqErrorRate_1st_Ul
attr title  "Harq Error Rate Dl, mean"
attr unit  ""
scalar scenario.node[6].nic.mac 	harqErrorRateDl:mean 	0
attr source  harqErrorRateDl
attr title  "Harq Error Rate Dl, mean"
attr unit  ""
scalar scenario.node[6].nic.mac 	harqErrorRateUl:mean 	0.1358024691358
attr source  harqErrorRateUl
attr title  "Harq Error Rate Dl, mean"
attr unit  ""
scalar scenario.node[6].nic.mac 	macPacketLossDl:mean 	0
attr source  macPacketLossDl
attr title  "Mac Packet Loss, mean"
attr unit  ""
scalar scenario.node[6].nic.mac 	macPacketLossUl:mean 	0
attr source  macPacketLossUl
attr title  "Mac Packet Loss, mean"
attr unit  ""
scalar scenario.node[6].nic.mac 	macCellPacketLossUl:mean 	-nan
attr source  macCellPacketLossUl
attr title  "Mac Cell Packet Loss, mean"
attr unit  ""
scalar scenario.node[6].nic.mac 	macCellPacketLossDl:mean 	-nan
attr source  macCellPacketLossDl
attr title  "Mac Cell Packet Loss, mean"
attr unit  ""
scalar scenario.node[6].nic.mac 	sentPacketToLowerLayer:count 	149
attr interpolationmode  none
attr source  sentPacketToLowerLayer
scalar scenario.node[6].nic.mac 	sentPacketToLowerLayer:sum(packetBytes) 	0
attr interpolationmode  none
attr source  sentPacketToLowerLayer
scalar scenario.node[6].nic.mac 	sentPacketToUpperLayer:count 	32
attr interpolationmode  none
attr source  sentPacketToUpperLayer
scalar scenario.node[6].nic.mac 	sentPacketToUpperLayer:sum(packetBytes) 	496
attr interpolationmode  none
attr source  sentPacketToUpperLayer
scalar scenario.node[6].nic.mac 	receivedPacketFromLowerLayer:count 	264
attr interpolationmode  none
attr source  receivedPacketFromLowerLayer
scalar scenario.node[6].nic.mac 	receivedPacketFromLowerLayer:sum(packetBytes) 	0
attr interpolationmode  none
attr source  receivedPacketFromLowerLayer
scalar scenario.node[6].nic.mac 	receivedPacketFromUpperLayer:count 	70
attr interpolationmode  none
attr source  receivedPacketFromUpperLayer
scalar scenario.node[6].nic.mac 	receivedPacketFromUpperLayer:sum(packetBytes) 	1275
attr interpolationmode  none
attr source  receivedPacketFromUpperLayer
scalar scenario.node[6].UDP 	droppedPkBadChecksum:count 	0
attr interpolationmode  none
attr title  "packets dropped (checksum error), count"
scalar scenario.node[6].UDP 	droppedPkWrongPort:count 	0
attr interpolationmode  none
attr title  "packets dropped (wrong port), count"
scalar scenario.node[6].UDP 	passedUpPk:count 	16
attr interpolationmode  none
attr title  "packets passed up, count"
scalar scenario.node[6].UDP 	rcvdPk:count 	16
attr interpolationmode  none
attr source  rcvdPk
attr title  "packets received, count"
scalar scenario.node[6].UDP 	rcvdPk:sum(packetBytes) 	128
attr interpolationmode  none
attr source  rcvdPk
attr title  "packets received, sum(packetBytes)"
scalar scenario.node[6].UDP 	sentPk:count 	37
attr interpolationmode  none
attr source  sentPk
attr title  "packets sent, count"
scalar scenario.node[6].UDP 	sentPk:sum(packetBytes) 	506
attr interpolationmode  none
attr source  sentPk
attr title  "packets sent, sum(packetBytes)"
scalar scenario.node[7].mobility 	startTime 	16
scalar scenario.node[7].mobility 	totalTime 	60.1
scalar scenario.node[7].mobility 	stopTime 	60.2
scalar scenario.node[7].mobility 	minSpeed 	0.076350875487551
scalar scenario.node[7].mobility 	maxSpeed 	13.88998506289
scalar scenario.node[7].mobility 	totalDistance 	386.04052620438
scalar scenario.node[7].mobility 	totalCO2Emission 	96.482053813074
scalar scenario.node[7].nic80211p.phy80211p 	busyTime 	0.00021158370662896
scalar scenario.node[7].nic80211p.mac1609_4 	ReceivedUnicastPackets 	0
scalar scenario.node[7].nic80211p.mac1609_4 	ReceivedBroadcasts 	119
scalar scenario.node[7].nic80211p.mac1609_4 	SentPackets 	19
scalar scenario.node[7].nic80211p.mac1609_4 	SNIRLostPackets 	48
scalar scenario.node[7].nic80211p.mac1609_4 	RXTXLostPackets 	0
scalar scenario.node[7].nic80211p.mac1609_4 	TotalLostPackets 	48
scalar scenario.node[7].nic80211p.mac1609_4 	DroppedPacketsInMac 	0
scalar scenario.node[7].nic80211p.mac1609_4 	TooLittleTime 	0
scalar scenario.node[7].nic80211p.mac1609_4 	TimesIntoBackoff 	19
scalar scenario.node[7].nic80211p.mac1609_4 	SlotsBackoff 	27
scalar scenario.node[7].nic80211p.mac1609_4 	NumInternalContention 	0
scalar scenario.node[7].nic80211p.mac1609_4 	totalBusyTime 	0.009034999839
scalar scenario.node[7].veinsmobility 	startTime 	16
scalar scenario.node[7].veinsmobility 	totalTime 	44.1
scalar scenario.node[7].veinsmobility 	stopTime 	60.2
scalar scenario.node[7].veinsmobility 	minSpeed 	0.076350875487551
scalar scenario.node[7].veinsmobility 	maxSpeed 	13.88998506289
scalar scenario.node[7].veinsmobility 	totalDistance 	386.04052620438
scalar scenario.node[7].veinsmobility 	totalCO2Emission 	96.482053813074
statistic scenario.node[7].decisionMaker 	lteMessagesReceived:stats
field count 8
field mean 1
field stddev 0
field sum 8
field sqrsum 8
field min 1
field max 1
attr source  lteMessagesReceived
attr title  "lteMessagesReceived, stats"
statistic scenario.node[7].decisionMaker 	lteMessagesReceived:histogram
field count 8
field mean 1
field stddev 0
field sum 8
field sqrsum 8
field min 1
field max 1
attr source  lteMessagesReceived
attr title  "lteMessagesReceived, histogram"
bin	-INF	0
bin	0	0
bin	1	8
bin	2	0
statistic scenario.node[7].decisionMaker 	DSRCMessagesReceived:stats
field count 119
field mean 1
field stddev 0
field sum 119
field sqrsum 119
field min 1
field max 1
attr source  DSRCMessagesReceived
attr title  "DSRCMessagesReceived, stats"
statistic scenario.node[7].decisionMaker 	DSRCMessagesReceived:histogram
field count 119
field mean 1
field stddev 0
field sum 119
field sqrsum 119
field min 1
field max 1
attr source  DSRCMessagesReceived
attr title  "DSRCMessagesReceived, histogram"
bin	-INF	0
bin	0	0
bin	1	119
bin	2	0
[...]
attr unit  ""
scalar scenario.node[8].nic.mac 	harqErrorRateDl:mean 	0
attr source  harqErrorRateDl
attr title  "Harq Error Rate Dl, mean"
attr unit  ""
scalar scenario.node[8].nic.mac 	harqErrorRateUl:mean 	0.13559322033898
attr source  harqErrorRateUl
attr title  "Harq Error Rate Dl, mean"
attr unit  ""
scalar scenario.node[8].nic.mac 	macPacketLossDl:mean 	0
attr source  macPacketLossDl
attr title  "Mac Packet Loss, mean"
attr unit  ""
scalar scenario.node[8].nic.mac 	macPacketLossUl:mean 	0
attr source  macPacketLossUl
attr title  "Mac Packet Loss, mean"
attr unit  ""
scalar scenario.node[8].nic.mac 	macCellPacketLossUl:mean 	-nan
attr source  macCellPacketLossUl
attr title  "Mac Cell Packet Loss, mean"
attr unit  ""
scalar scenario.node[8].nic.mac 	macCellPacketLossDl:mean 	-nan
attr source  macCellPacketLossDl
attr title  "Mac Cell Packet Loss, mean"
attr unit  ""
scalar scenario.node[8].nic.mac 	sentPacketToLowerLayer:count 	116
attr interpolationmode  none
attr source  sentPacketToLowerLayer
scalar scenario.node[8].nic.mac 	sentPacketToLowerLayer:sum(packetBytes) 	0
attr interpolationmode  none
attr source  sentPacketToLowerLayer
scalar scenario.node[8].nic.mac 	sentPacketToUpperLayer:count 	32
attr interpolationmode  none
attr source  sentPacketToUpperLayer
scalar scenario.node[8].nic.mac 	sentPacketToUpperLayer:sum(packetBytes) 	496
attr interpolationmode  none
attr source  sentPacketToUpperLayer
scalar scenario.node[8].nic.mac 	receivedPacketFromLowerLayer:count 	206
attr interpolationmode  none
attr source  receivedPacketFromLowerLayer
scalar scenario.node[8].nic.mac 	receivedPacketFromLowerLayer:sum(packetBytes) 	0
attr interpolationmode  none
attr source  receivedPacketFromLowerLayer
scalar scenario.node[8].nic.mac 	receivedPacketFromUpperLayer:count 	66
attr interpolationmode  none
attr source  receivedPacketFromUpperLayer
scalar scenario.node[8].nic.mac 	receivedPacketFromUpperLayer:sum(packetBytes) 	1193
attr interpolationmode  none
attr source  receivedPacketFromUpperLayer
scalar scenario.node[8].UDP 	droppedPkBadChecksum:count 	0
attr interpolationmode  none
attr title  "packets dropped (checksum error), count"
scalar scenario.node[8].UDP 	droppedPkWrongPort:count 	0
attr interpolationmode  none
attr title  "packets dropped (wrong port), count"
scalar scenario.node[8].UDP 	passedUpPk:count 	16
attr interpolationmode  none
attr title  "packets passed up, count"
scalar scenario.node[8].UDP 	rcvdPk:count 	16
attr interpolationmode  none
attr source  rcvdPk
attr title  "packets received, count"
scalar scenario.node[8].UDP 	rcvdPk:sum(packetBytes) 	128
attr interpolationmode  none
attr source  rcvdPk
attr title  "packets received, sum(packetBytes)"
scalar scenario.node[8].UDP 	sentPk:count 	40
attr interpolationmode  none
attr source  sentPk
attr title  "packets sent, count"
scalar scenario.node[8].UDP 	sentPk:sum(packetBytes) 	560
attr interpolationmode  none
attr source  sentPk
attr title  "packets sent, sum(packetBytes)"
scalar scenario.eNodeB1.nic.pdcpRrc 	sentPacketToLowerLayer:count 	117
attr interpolationmode  none
attr source  sentPacketToLowerLayer
scalar scenario.eNodeB1.nic.pdcpRrc 	sentPacketToLowerLayer:sum(packetBytes) 	3393
attr interpolationmode  none
attr source  sentPacketToLowerLayer
scalar scenario.eNodeB1.nic.pdcpRrc 	sentPacketToUpperLayer:count 	307
attr interpolationmode  none
attr source  sentPacketToUpperLayer
scalar scenario.eNodeB1.nic.pdcpRrc 	sentPacketToUpperLayer:sum(packetBytes) 	10496
attr interpolationmode  none
attr source  sentPacketToUpperLayer
scalar scenario.eNodeB1.nic.pdcpRrc 	receivedPacketFromLowerLayer:count 	307
attr interpolationmode  none
attr source  receivedPacketFromLowerLayer
scalar scenario.eNodeB1.nic.pdcpRrc 	receivedPacketFromLowerLayer:sum(packetBytes) 	10803
attr interpolationmode  none
attr source  receivedPacketFromLowerLayer
scalar scenario.eNodeB1.nic.pdcpRrc 	receivedPacketFromUpperLayer:count 	117
attr interpolationmode  none
attr source  receivedPacketFromUpperLayer
scalar scenario.eNodeB1.nic.pdcpRrc 	receivedPacketFromUpperLayer:sum(packetBytes) 	3276
attr interpolationmode  none
attr source  receivedPacketFromUpperLayer
scalar scenario.eNodeB1.nic.rlc.um 	rlcCellPacketLossUl:lteAvg 	0
attr source  rlcCellPacketLossUl
attr title  "rlc Cell Packet Loss, lteAvg"
attr unit  ""
scalar scenario.eNodeB1.nic.rlc.um 	rlcCellPacketLossDl:lteAvg 	0
attr source  rlcCellPacketLossDl
attr title  "rlc Cell Packet Loss, lteAvg"
attr unit  ""
scalar scenario.eNodeB1.nic.rlc.um 	rlcCellThroughputDl:lteRate 	57.492034809073
attr source  rlcCellThroughputDl
attr title  "Cell Throughput at the rlc layer DL, lteRate"
attr unit  Bps
scalar scenario.eNodeB1.nic.rlc.um 	rlcCellThroughputUl:lteRate 	164.54327962413
attr source  rlcCellThroughputUl
attr title  "Cell Throughput at the rlc layer UL, lteRate"
attr unit  Bps
scalar scenario.eNodeB1.nic.mac 	depletedPowerUl:lteAvg 	0
attr source  depletedPowerUl
attr title  "LTE ENodeB depleted power Ul, lteAvg"
attr unit  watts
scalar scenario.eNodeB1.nic.mac 	depletedPowerDl:lteAvg 	260.00664531722
attr source  depletedPowerDl
attr title  "LTE ENodeB depleted power Dl, lteAvg"
attr unit  watts
scalar scenario.eNodeB1.nic.mac 	avgServedBlocksUl:lteAvg 	0.06619335347432
attr source  avgServedBlocksUl
attr title  "LTE Avg Served Blocks Ul, lteAvg"
attr unit  blocks
scalar scenario.eNodeB1.nic.mac 	avgServedBlocksDl:lteAvg 	0.0017673716012085
attr source  avgServedBlocksDl
attr title  "LTE Avg Served Blocks Dl, lteAvg"
attr unit  blocks
scalar scenario.eNodeB1.nic.mac 	cellBlocksUtilizationUl:lteAvg 	0.0006619335347432
attr source  cellBlocksUtilizationUl
attr title  "LTE Cell Blocks Utilization Ul, lteAvg"
attr unit  blocks
scalar scenario.eNodeB1.nic.mac 	cellBlocksUtilizationDl:lteAvg 	1.7673716012085e-05
attr source  cellBlocksUtilizationDl
attr title  "LTE Cell Blocks Utilization Dl, lteAvg"
attr unit  blocks
scalar scenario.eNodeB1.nic.mac 	measuredItbs:mean 	12.436464088398
attr source  measuredItbs
attr title  "TBS index, mean"
attr unit  ""
scalar scenario.eNodeB1.nic.mac 	harqErrorRate_4th_Dl:mean 	-nan
attr source  harqErrorRate_4th_Dl
attr title  "Harq Error Rate Dl, mean"
attr unit  ""
scalar scenario.eNodeB1.nic.mac 	harqErrorRate_4th_Ul:mean 	-nan
attr source  harqErrorRate_4th_Ul
attr title  "Harq Error Rate Dl, mean"
attr unit  ""
scalar scenario.eNodeB1.nic.mac 	harqErrorRate_3rd_Dl:mean 	-nan
attr source  harqErrorRate_3rd_Dl
attr title  "Harq Error Rate Dl, mean"
attr unit  ""
scalar scenario.eNodeB1.nic.mac 	harqErrorRate_3rd_Ul:mean 	-nan
attr source  harqErrorRate_3rd_Ul
attr title  "Harq Error Rate Dl, mean"
attr unit  ""
scalar scenario.eNodeB1.nic.mac 	harqErrorRate_2nd_Dl:mean 	-nan
attr source  harqErrorRate_2nd_Dl
attr title  "Harq Error Rate Dl, mean"
attr unit  ""
scalar scenario.eNodeB1.nic.mac 	harqErrorRate_2nd_Ul:mean 	-nan
attr source  harqErrorRate_2nd_Ul
attr title  "Harq Error Rate Dl, mean"
attr unit  ""
scalar scenario.eNodeB1.nic.mac 	harqErrorRate_1st_Dl:mean 	-nan
attr source  harqErrorRate_1st_Dl
attr title  "Harq Error Rate Dl, mean"
attr unit  ""
scalar scenario.eNodeB1.nic.mac 	harqErrorRate_1st_Ul:mean 	-nan
attr source  harqErrorRate_1st_Ul
attr title  "Harq Error Rate Dl, mean"
attr unit  ""
scalar scenario.eNodeB1.nic.mac 	harqErrorRateDl:mean 	-nan
attr source  harqErrorRateDl
attr title  "Harq Error Rate Dl, mean"
attr unit  ""
scalar scenario.eNodeB1.nic.mac 	harqErrorRateUl:mean 	-nan
attr source  harqErrorRateUl
attr title  "Harq Error Rate Dl, mean"
attr unit  ""
scalar scenario.eNodeB1.nic.mac 	macPacketLossDl:mean 	-nan
attr source  macPacketLossDl
attr title  "Mac Packet Loss, mean"
attr unit  ""
scalar scenario.eNodeB1.nic.mac 	macPacketLossUl:mean 	-nan
attr source  macPacketLossUl
attr title  "Mac Packet Loss, mean"
attr unit  ""
scalar scenario.eNodeB1.nic.mac 	macCellPacketLossUl:mean 	0.012544802867384
attr source  macCellPacketLossUl
attr title  "Mac Cell Packet Loss, mean"
attr unit  ""
scalar scenario.eNodeB1.nic.mac 	macCellPacketLossDl:mean 	0
attr source  macCellPacketLossDl
attr title  "Mac Cell Packet Loss, mean"
attr unit  ""
scalar scenario.eNodeB1.nic.mac 	macCellThroughputDl:lteRate 	61.201198345142
attr source  macCellThroughputDl
attr title  "Cell Throughput at the MAC layer DL, lteRate"
attr unit  Bps
scalar scenario.eNodeB1.nic.mac 	macCellThroughputUl:lteRate 	180.40984551533
attr source  macCellThroughputUl
attr title  "Cell Throughput at the MAC layer UL, lteRate"
attr unit  Bps
scalar scenario.eNodeB1.nic.mac 	sentPacketToLowerLayer:count 	2182
attr interpolationmode  none
attr source  sentPacketToLowerLayer
scalar scenario.eNodeB1.nic.mac 	sentPacketToLowerLayer:sum(packetBytes) 	0
attr interpolationmode  none
attr source  sentPacketToLowerLayer
scalar scenario.eNodeB1.nic.mac 	sentPacketToUpperLayer:count 	614
attr interpolationmode  none
attr source  sentPacketToUpperLayer
scalar scenario.eNodeB1.nic.mac 	sentPacketToUpperLayer:sum(packetBytes) 	11417
attr interpolationmode  none
attr source  sentPacketToUpperLayer
scalar scenario.eNodeB1.nic.mac 	receivedPacketFromLowerLayer:count 	75717
attr interpolationmode  none
attr source  receivedPacketFromLowerLayer
scalar scenario.eNodeB1.nic.mac 	receivedPacketFromLowerLayer:sum(packetBytes) 	0
attr interpolationmode  none
attr source  receivedPacketFromLowerLayer
scalar scenario.eNodeB1.nic.mac 	receivedPacketFromUpperLayer:count 	234
attr interpolationmode  none
attr source  receivedPacketFromUpperLayer
scalar scenario.eNodeB1.nic.mac 	receivedPacketFromUpperLayer:sum(packetBytes) 	3627
attr interpolationmode  none
attr source  receivedPacketFromUpperLayer
scalar scenario.eNodeB1.ppp.queue 	queueLength:max 	3
attr interpolationmode  sample-hold
attr title  "queue length, max"
scalar scenario.eNodeB1.ppp.queue 	queueLength:timeavg 	4.1314285714286e-08
attr interpolationmode  sample-hold
attr title  "queue length, timeavg"
statistic scenario.eNodeB1.ppp.queue 	queueingTime:histogram
field count 307
field mean 9.4201954397394e-09
field stddev 1.7718643000117e-08
field sum 2.892e-06
field sqrsum 1.23312e-13
field min 0
field max 1e-07
attr interpolationmode  none
attr title  "queueing time, histogram"
bin	-INF	0
bin	-3.6e-08	0
bin	-3.12e-08	0
bin	-2.64e-08	0
bin	-2.16e-08	0
bin	-1.68e-08	0
bin	-1.2e-08	0
bin	-7.2e-09	0
bin	-2.4e-09	233
bin	2.4e-09	0
bin	7.2e-09	0
bin	1.2e-08	0
bin	1.68e-08	0
bin	2.16e-08	0
bin	2.64e-08	6
bin	3.12e-08	0
bin	3.6e-08	60
bin	4.08e-08	0
bin	4.56e-08	0
bin	5.04e-08	0
bin	5.52e-08	0
bin	6e-08	5
bin	6.48e-08	0
bin	6.96e-08	2
bin	7.44e-08	0
bin	7.92e-08	0
bin	8.4e-08	0
bin	8.88e-08	0
bin	9.36e-08	0
bin	9.84e-08	1
bin	1.032e-07	0
bin	1.08e-07	0
scalar scenario.eNodeB1.ppp.queue 	dropPk:count 	0
attr interpolationmode  none
attr source  dropPkByQueue
attr title  "dropped packets, count"
scalar scenario.eNodeB1.ppp.queue 	dropPk:sum(packetBytes) 	0
attr interpolationmode  none
attr source  dropPkByQueue
attr title  "dropped packets, sum(packetBytes)"
scalar scenario.eNodeB1.ppp.queue 	rcvdPk:count 	307
attr interpolationmode  none
attr title  "received packets, count"
scalar scenario.eNodeB1.ppp.queue 	rcvdPk:sum(packetBytes) 	10496
attr interpolationmode  none
attr title  "received packets, sum(packetBytes)"
scalar scenario.eNodeB1.ppp.ppp 	txState:timeavg 	1.4451428571429e-07
attr interpolationmode  sample-hold
attr title  "tx state, timeavg"
scalar scenario.eNodeB1.ppp.ppp 	droppedPkIfaceDown:count 	0
attr interpolationmode  none
attr source  dropPkIfaceDown
attr title  "packets dropped/interface down, count"
scalar scenario.eNodeB1.ppp.ppp 	droppedPkIfaceDown:sum(packetBytes) 	0
attr interpolationmode  none
attr source  dropPkIfaceDown
attr title  "packets dropped/interface down, sum(packetBytes)"
scalar scenario.eNodeB1.ppp.ppp 	droppedPkBitError:count 	0
attr interpolationmode  none
attr source  dropPkBitError
attr title  "packets dropped/bit error, count"
scalar scenario.eNodeB1.ppp.ppp 	droppedPkBitError:sum(packetBytes) 	0
attr interpolationmode  none
attr source  dropPkBitError
attr title  "packets dropped/bit error, sum(packetBytes)"
scalar scenario.eNodeB1.ppp.ppp 	rxPkOk:count 	117
attr interpolationmode  none
attr source  rxPkOk
attr title  "packets received OK, count"
scalar scenario.eNodeB1.ppp.ppp 	rxPkOk:sum(packetBytes) 	4095
attr interpolationmode  none
attr source  rxPkOk
attr title  "packets received OK, sum(packetBytes)"
scalar scenario.eNodeB1.ppp.ppp 	rcvdPkFromHL:count 	307
attr interpolationmode  none
attr source  packetReceivedFromUpper
attr title  "packets received from higher layer, count"
scalar scenario.eNodeB1.ppp.ppp 	rcvdPkFromHL:sum(packetBytes) 	10496
attr interpolationmode  none
attr source  packetReceivedFromUpper
attr title  "packets received from higher layer, sum(packetBytes)"
scalar scenario.eNodeB1.ppp.ppp 	passedUpPk:count 	117
attr interpolationmode  none
attr source  packetSentToUpper
attr title  "packets passed to higher layer, count"
scalar scenario.eNodeB1.ppp.ppp 	passedUpPk:sum(packetBytes) 	3276
attr interpolationmode  none
attr source  packetSentToUpper
attr title  "packets passed to higher layer, sum(packetBytes)"
scalar scenario.eNodeB1.ppp.ppp 	txPk:count 	307
attr interpolationmode  none
attr source  packetSentToLower
attr title  "packets transmitted, count"
scalar scenario.eNodeB1.ppp.ppp 	txPk:sum(packetBytes) 	12645
attr interpolationmode  none
attr source  packetSentToLower
attr title  "packets transmitted, sum(packetBytes)"
scalar scenario.server.networkLayer.arp 	failedARPResolution:count 	0
attr title  "ARP failed resolutions, count"
scalar scenario.server.networkLayer.arp 	completedARPResolution:count 	0
attr title  "ARP completed resolutions, count"
scalar scenario.server.networkLayer.arp 	initiatedARPResolution:count 	0
attr title  "ARP initiated resolutions, count"
scalar scenario.server.networkLayer.arp 	sentReply:count 	0
attr title  "ARP replies sent, count"
scalar scenario.server.networkLayer.arp 	sentReq:count 	0
attr title  "ARP request sent, count"
scalar scenario.server.lo0.lo 	droppedPkBitError:count 	0
attr interpolationmode  none
attr source  dropPkBitError
attr title  "packets dropped/bit error, count"
scalar scenario.server.lo0.lo 	droppedPkBitError:sum(packetBytes) 	0
attr interpolationmode  none
attr source  dropPkBitError
attr title  "packets dropped/bit error, sum(packetBytes)"
scalar scenario.server.lo0.lo 	rcvdPkFromHL:count 	0
attr interpolationmode  none
attr source  packetReceivedFromUpper
attr title  "packets received from higher layer, count"
scalar scenario.server.lo0.lo 	rcvdPkFromHL:sum(packetBytes) 	0
attr interpolationmode  none
attr source  packetReceivedFromUpper
attr title  "packets received from higher layer, sum(packetBytes)"
scalar scenario.server.lo0.lo 	passedUpPk:count 	0
attr interpolationmode  none
attr source  packetSentToUpper
attr title  "packets passed to higher layer, count"
scalar scenario.server.lo0.lo 	passedUpPk:sum(packetBytes) 	0
attr interpolationmode  none
attr source  packetSentToUpper
attr title  "packets passed to higher layer, sum(packetBytes)"
scalar scenario.server.ppp[0].queue 	queueLength:max 	0
attr interpolationmode  sample-hold
attr title  "queue length, max"
scalar scenario.server.ppp[0].queue 	queueLength:timeavg 	0
attr interpolationmode  sample-hold
attr title  "queue length, timeavg"
statistic scenario.server.ppp[0].queue 	queueingTime:histogram
field count 117
field mean 0
field stddev 0
field sum 0
field sqrsum 0
field min 0
field max 0
attr interpolationmode  none
attr title  "queueing time, histogram"
bin	-INF	0
bin	-0.5	0
bin	-0.46666666666667	0
bin	-0.43333333333333	0
bin	-0.4	0
bin	-0.36666666666667	0
bin	-0.33333333333333	0
bin	-0.3	0
bin	-0.26666666666667	0
bin	-0.23333333333333	0
bin	-0.2	0
bin	-0.16666666666667	0
bin	-0.13333333333333	0
bin	-0.1	0
bin	-0.066666666666667	0
bin	-0.033333333333333	0
bin	0	117
bin	0.033333333333333	0
bin	0.066666666666667	0
bin	0.1	0
bin	0.13333333333333	0
bin	0.16666666666667	0
bin	0.2	0
bin	0.23333333333333	0
bin	0.26666666666667	0
bin	0.3	0
bin	0.33333333333333	0
bin	0.36666666666667	0
bin	0.4	0
bin	0.43333333333333	0
bin	0.46666666666667	0
bin	0.5	0
scalar scenario.server.ppp[0].queue 	dropPk:count 	0
attr interpolationmode  none
attr source  dropPkByQueue
attr title  "dropped packets, count"
scalar scenario.server.ppp[0].queue 	dropPk:sum(packetBytes) 	0
attr interpolationmode  none
attr source  dropPkByQueue
attr title  "dropped packets, sum(packetBytes)"
scalar scenario.server.ppp[0].queue 	rcvdPk:count 	117
attr interpolationmode  none
attr title  "received packets, count"
scalar scenario.server.ppp[0].queue 	rcvdPk:sum(packetBytes) 	3276
attr interpolationmode  none
attr title  "received packets, sum(packetBytes)"
scalar scenario.server.ppp[0].ppp 	txState:timeavg 	4.68e-08
attr interpolationmode  sample-hold
attr title  "tx state, timeavg"
scalar scenario.server.ppp[0].ppp 	droppedPkIfaceDown:count 	0
attr interpolationmode  none
attr source  dropPkIfaceDown
attr title  "packets dropped/interface down, count"
scalar scenario.server.ppp[0].ppp 	droppedPkIfaceDown:sum(packetBytes) 	0
attr interpolationmode  none
attr source  dropPkIfaceDown
attr title  "packets dropped/interface down, sum(packetBytes)"
scalar scenario.server.ppp[0].ppp 	droppedPkBitError:count 	0
attr interpolationmode  none
attr source  dropPkBitError
attr title  "packets dropped/bit error, count"
scalar scenario.server.ppp[0].ppp 	droppedPkBitError:sum(packetBytes) 	0
attr interpolationmode  none
attr source  dropPkBitError
attr title  "packets dropped/bit error, sum(packetBytes)"
scalar scenario.server.ppp[0].ppp 	rxPkOk:count 	307
attr interpolationmode  none
attr source  rxPkOk
attr title  "packets received OK, count"
scalar scenario.server.ppp[0].ppp 	rxPkOk:sum(packetBytes) 	12645
attr interpolationmode  none
attr source  rxPkOk
attr title  "packets received OK, sum(packetBytes)"
scalar scenario.server.ppp[0].ppp 	rcvdPkFromHL:count 	117
attr interpolationmode  none
attr source  packetReceivedFromUpper
attr title  "packets received from higher layer, count"
scalar scenario.server.ppp[0].ppp 	rcvdPkFromHL:sum(packetBytes) 	3276
attr interpolationmode  none
attr source  packetReceivedFromUpper
attr title  "packets received from higher layer, sum(packetBytes)"
scalar scenario.server.ppp[0].ppp 	passedUpPk:count 	307
attr interpolationmode  none
attr source  packetSentToUpper
attr title  "packets passed to higher layer, count"
scalar scenario.server.ppp[0].ppp 	passedUpPk:sum(packetBytes) 	10496
attr interpolationmode  none
attr source  packetSentToUpper
attr title  "packets passed to higher layer, sum(packetBytes)"
scalar scenario.server.ppp[0].ppp 	txPk:count 	117
attr interpolationmode  none
attr source  packetSentToLower
attr title  "packets transmitted, count"
scalar scenario.server.ppp[0].ppp 	txPk:sum(packetBytes) 	4095
attr interpolationmode  none
attr source  packetSentToLower
attr title  "packets transmitted, sum(packetBytes)"
scalar scenario.server.udp 	droppedPkBadChecksum:count 	0
attr interpolationmode  none
attr title  "packets dropped (checksum error), count"
scalar scenario.server.udp 	droppedPkWrongPort:count 	0
attr interpolationmode  none
attr title  "packets dropped (wrong port), count"
scalar scenario.server.udp 	passedUpPk:count 	117
attr interpolationmode  none
attr title  "packets passed up, count"
scalar scenario.server.udp 	rcvdPk:count 	117
attr interpolationmode  none
attr source  rcvdPk
attr title  "packets received, count"
scalar scenario.server.udp 	rcvdPk:sum(packetBytes) 	936
attr interpolationmode  none
attr source  rcvdPk
attr title  "packets received, sum(packetBytes)"
scalar scenario.server.udp 	sentPk:count 	117
attr interpolationmode  none
attr source  sentPk
attr title  "packets sent, count"
scalar scenario.server.udp 	sentPk:sum(packetBytes) 	936
attr interpolationmode  none
attr source  sentPk
attr title  "packets sent, sum(packetBytes)"
